sad/pglib_opf_case2746wop_mp__sad.m
%%%%%%%%%%%%%%%%%%%%%%%%%%%%%%%%%%%%%%%%%%%%%%%%%%%%%%%%%%%%%%%%%%%%%%%%%%%
%%%%                                                                  %%%%%
%%%%    IEEE PES Power Grid Library - Optimal Power Flow - v17.07     %%%%%
%%%%          (https://github.com/power-grid-lib/pglib-opf)           %%%%%
%%%%             Benchmark Group - Small Angle Difference             %%%%%
%%%%                         27 - June - 2017                         %%%%%
%%%%                                                                  %%%%%
%%%%%%%%%%%%%%%%%%%%%%%%%%%%%%%%%%%%%%%%%%%%%%%%%%%%%%%%%%%%%%%%%%%%%%%%%%%
function mpc = pglib_opf_case2746wop_mp__sad
mpc.version = '2';
mpc.baseMVA = 100.0;

%% area data
%	area	refbus
mpc.areas = [
	1	 18;
];

%% bus data
%	bus_i	type	Pd	Qd	Gs	Bs	area	Vm	Va	baseKV	zone	Vmax	Vmin
mpc.bus = [
	1	 1	 0.0	 0.0	 0.0	 0.0	 1	    1.10104	   -0.22404	 220.0	 1	    1.11000	    0.95000;
	2	 1	 0.0	 0.0	 0.0	 0.0	 1	    1.10422	    2.91725	 220.0	 1	    1.11000	    0.95000;
	3	 1	 0.0	 0.0	 0.0	 0.0	 1	    1.07740	   -9.88950	 220.0	 1	    1.11000	    0.95000;
	4	 1	 0.0	 0.0	 0.0	 0.0	 1	    1.10185	   -1.75191	 220.0	 1	    1.11000	    0.95000;
	5	 1	 0.0	 0.0	 0.0	 0.0	 1	    1.10187	   -1.75700	 220.0	 1	    1.11000	    0.95000;
	6	 1	 0.0	 0.0	 0.0	 0.0	 1	    1.08126	   -6.76709	 220.0	 1	    1.11000	    0.95000;
	7	 1	 0.0	 0.0	 0.0	 0.0	 1	    1.08130	   -6.76283	 220.0	 1	    1.11000	    0.95000;
	8	 1	 0.0	 0.0	 0.0	 -50.0	 1	    1.03266	   -5.26705	 400.0	 1	    1.05000	    0.95000;
	9	 1	 0.0	 0.0	 0.0	 0.0	 1	    1.03265	   -5.26712	 400.0	 1	    1.05000	    0.95000;
	10	 1	 0.0	 0.0	 0.0	 0.0	 1	    1.07832	   -6.90471	 220.0	 1	    1.11000	    0.95000;
	11	 1	 0.0	 0.0	 0.0	 0.0	 1	    1.07823	   -6.91281	 220.0	 1	    1.11000	    0.95000;
	12	 1	 0.0	 0.0	 0.0	 0.0	 1	    1.07823	   -6.90071	 220.0	 1	    1.11000	    0.95000;
	13	 1	 0.0	 0.0	 0.0	 -50.0	 1	    1.02976	   -4.61457	 400.0	 1	    1.05000	    0.95000;
	14	 1	 0.0	 0.0	 0.0	 0.0	 1	    1.02985	   -4.61049	 400.0	 1	    1.05000	    0.95000;
	15	 1	 0.0	 0.0	 0.0	 0.0	 1	    1.04160	   -5.90002	 400.0	 1	    1.05000	    0.95000;
	16	 1	 0.0	 0.0	 0.0	 0.0	 1	    1.04160	   -5.90002	 400.0	 1	    1.05000	    0.95000;
	17	 2	 2.302	 31.0	 0.0	 0.0	 1	    1.10985	   -5.66072	 220.0	 1	    1.11000	    0.95000;
	18	 2	 9.7	 40.0	 0.0	 0.0	 1	    1.11000	   -5.66005	 220.0	 1	    1.11000	    0.95000;
	19	 1	 0.0	 0.0	 0.0	 0.0	 1	    1.10327	   -1.17358	 220.0	 1	    1.11000	    0.95000;
	20	 1	 0.0	 0.0	 0.0	 0.0	 1	    1.10327	   -1.16696	 220.0	 1	    1.11000	    0.95000;
	21	 1	 0.0	 0.0	 0.0	 0.0	 1	    1.09015	   -8.16655	 220.0	 1	    1.11000	    0.95000;
	22	 1	 0.0	 0.0	 0.0	 0.0	 1	    1.09015	   -8.16655	 220.0	 1	    1.11000	    0.95000;
	23	 1	 0.0	 0.0	 0.0	 0.0	 1	    1.07838	   -6.68822	 220.0	 1	    1.11000	    0.95000;
	24	 1	 0.0	 0.0	 0.0	 0.0	 1	    1.10294	    0.23022	 220.0	 1	    1.11000	    0.95000;
	25	 1	 0.0	 0.0	 0.0	 -50.0	 1	    1.02095	   -8.59177	 400.0	 1	    1.05000	    0.95000;
	26	 2	 28.565	 42.054	 0.0	 0.0	 1	    1.11000	   -0.03798	 220.0	 1	    1.11000	    0.95000;
	27	 2	 85.005	 122.06	 0.0	 0.0	 1	    1.11000	    3.20078	 220.0	 1	    1.11000	    0.95000;
	28	 3	 44.783	 80.0	 0.0	 0.0	 1	    1.05000	   -0.00000	 400.0	 1	    1.05000	    0.95000;
	29	 2	 60.097	 90.0	 0.0	 0.0	 1	    1.04998	    0.00700	 400.0	 1	    1.05000	    0.95000;
	30	 1	 0.0	 0.0	 0.0	 0.0	 1	    1.08020	   -7.88811	 220.0	 1	    1.11000	    0.95000;
	31	 1	 0.0	 0.0	 0.0	 0.0	 1	    1.05000	   -1.23307	 400.0	 1	    1.05000	    0.95000;
	32	 1	 0.0	 0.0	 0.0	 0.0	 1	    1.07693	   -7.06066	 220.0	 1	    1.11000	    0.95000;
	33	 1	 0.0	 0.0	 0.0	 0.0	 1	    1.10294	    0.23112	 220.0	 1	    1.11000	    0.95000;
	34	 1	 0.0	 0.0	 0.0	 0.0	 1	    1.10413	   -3.31428	 220.0	 1	    1.11000	    0.95000;
	35	 1	 0.0	 0.0	 0.0	 0.0	 1	    1.08983	   -5.18319	 220.0	 2	    1.11000	    0.95000;
	36	 1	 0.0	 0.0	 0.0	 0.0	 1	    1.07925	   -8.04129	 220.0	 2	    1.11000	    0.95000;
	37	 1	 0.0	 0.0	 0.0	 0.0	 1	    1.08878	   -6.97980	 220.0	 2	    1.11000	    0.95000;
	38	 1	 0.0	 0.0	 0.0	 0.0	 1	    1.08876	   -6.98450	 220.0	 2	    1.11000	    0.95000;
	39	 1	 0.0	 0.0	 0.0	 0.0	 1	    1.07754	   -6.27767	 220.0	 2	    1.11000	    0.95000;
	40	 1	 0.0	 0.0	 0.0	 0.0	 1	    1.11000	   -6.77205	 220.0	 2	    1.11000	    0.95000;
	41	 1	 0.0	 0.0	 0.0	 0.0	 1	    1.10992	   -6.78172	 220.0	 2	    1.11000	    0.95000;
	42	 1	 0.0	 0.0	 0.0	 0.0	 1	    1.02604	   -6.64000	 400.0	 2	    1.05000	    0.95000;
	43	 2	 12.0	 0.0	 0.0	 0.0	 1	    1.10083	   -2.14495	 220.0	 2	    1.11000	    0.95000;
	44	 2	 24.0	 0.0	 0.0	 0.0	 1	    1.10080	   -2.12058	 220.0	 2	    1.11000	    0.95000;
	45	 2	 20.0	 0.0	 0.0	 0.0	 1	    1.03472	   -3.05352	 400.0	 2	    1.05000	    0.95000;
	46	 1	 0.0	 0.0	 0.0	 0.0	 1	    1.03470	   -3.05260	 400.0	 2	    1.05000	    0.95000;
	47	 1	 0.0	 0.0	 0.0	 0.0	 1	    1.10865	   -7.14376	 220.0	 2	    1.11000	    0.95000;
	48	 1	 0.0	 0.0	 0.0	 0.0	 1	    1.02758	  -10.39913	 400.0	 2	    1.05000	    0.95000;
	49	 1	 0.0	 0.0	 0.0	 0.0	 1	    1.02755	  -10.40483	 400.0	 2	    1.05000	    0.95000;
	50	 1	 0.0	 0.0	 0.0	 0.0	 1	    1.02925	   -3.60106	 400.0	 2	    1.05000	    0.95000;
	51	 1	 0.0	 0.0	 0.0	 0.0	 1	    1.07661	   -5.49819	 220.0	 2	    1.11000	    0.95000;
	52	 1	 0.0	 0.0	 0.0	 0.0	 1	    1.07659	   -5.49483	 220.0	 2	    1.11000	    0.95000;
	53	 1	 0.0	 0.0	 0.0	 0.0	 1	    1.03664	   -5.70962	 400.0	 2	    1.05000	    0.95000;
	54	 1	 0.0	 0.0	 0.0	 0.0	 1	    1.03666	   -5.71558	 400.0	 2	    1.05000	    0.95000;
	55	 2	 12.0	 0.0	 0.0	 0.0	 1	    1.09210	   -6.52169	 220.0	 2	    1.11000	    0.95000;
	56	 2	 12.0	 0.0	 0.0	 0.0	 1	    1.09207	   -6.51881	 220.0	 2	    1.11000	    0.95000;
	57	 2	 12.0	 0.0	 0.0	 0.0	 1	    1.03933	   -6.51824	 400.0	 2	    1.05000	    0.95000;
	58	 2	 12.0	 0.0	 0.0	 0.0	 1	    1.03932	   -6.51951	 400.0	 2	    1.05000	    0.95000;
	59	 2	 170.733	 62.0	 0.0	 0.0	 1	    1.09145	   -3.78728	 220.0	 2	    1.11000	    0.95000;
	60	 1	 0.0	 0.0	 0.0	 0.0	 1	    1.09151	   -3.78458	 220.0	 2	    1.11000	    0.95000;
	61	 1	 0.0	 0.0	 0.0	 0.0	 1	    1.10371	   -7.33195	 220.0	 2	    1.11000	    0.95000;
	62	 1	 0.0	 0.0	 0.0	 0.0	 1	    1.09853	   -4.13368	 220.0	 2	    1.11000	    0.95000;
	63	 1	 0.0	 0.0	 0.0	 0.0	 1	    1.09849	   -4.12911	 220.0	 2	    1.11000	    0.95000;
	64	 1	 0.0	 0.0	 0.0	 0.0	 1	    1.03861	   -8.04411	 400.0	 2	    1.05000	    0.95000;
	65	 1	 0.0	 0.0	 0.0	 0.0	 1	    1.03856	   -8.05484	 400.0	 2	    1.05000	    0.95000;
	66	 1	 0.0	 0.0	 0.0	 0.0	 1	    1.08565	   -6.91440	 220.0	 2	    1.11000	    0.95000;
	67	 1	 0.0	 0.0	 0.0	 0.0	 1	    1.08713	   -6.76582	 220.0	 2	    1.11000	    0.95000;
	68	 1	 0.0	 0.0	 0.0	 0.0	 1	    1.07341	   -4.82419	 220.0	 2	    1.11000	    0.95000;
	69	 1	 0.0	 0.0	 0.0	 0.0	 1	    1.09874	   -4.90558	 220.0	 3	    1.11000	    0.95000;
	70	 1	 6.8	 0.0	 0.0	 0.0	 1	    1.09727	   -9.12932	 220.0	 3	    1.11000	    0.95000;
	71	 1	 11.331	 2.43	 0.0	 0.0	 1	    1.09714	   -9.13408	 220.0	 3	    1.11000	    0.95000;
	72	 1	 0.0	 0.0	 0.0	 0.0	 1	    1.09186	  -10.66011	 220.0	 3	    1.11000	    0.95000;
	73	 1	 0.0	 0.0	 0.0	 0.0	 1	    1.09189	  -10.64058	 220.0	 3	    1.11000	    0.95000;
	74	 1	 0.0	 0.0	 0.0	 0.0	 1	    1.10653	   -8.74319	 220.0	 3	    1.11000	    0.95000;
	75	 1	 0.0	 0.0	 0.0	 0.0	 1	    1.10650	   -8.74576	 220.0	 3	    1.11000	    0.95000;
	76	 1	 0.0	 0.0	 0.0	 0.0	 1	    1.09570	  -15.26892	 220.0	 3	    1.11000	    0.95000;
	77	 1	 0.0	 0.0	 0.0	 0.0	 1	    1.09566	  -15.28306	 220.0	 3	    1.11000	    0.95000;
	78	 2	 26.999	 69.999	 0.0	 0.0	 1	    1.09494	   -9.31641	 220.0	 3	    1.11000	    0.95000;
	79	 2	 8.999	 20.999	 0.0	 0.0	 1	    1.09663	   -9.79188	 220.0	 3	    1.11000	    0.95000;
	80	 1	 10.085	 1.376	 0.0	 0.0	 1	    1.09165	  -10.32494	 220.0	 3	    1.11000	    0.95000;
	81	 1	 0.0	 0.0	 0.0	 0.0	 1	    1.09164	  -10.32599	 220.0	 3	    1.11000	    0.95000;
	82	 2	 34.999	 107.999	 0.0	 0.0	 1	    1.04333	   -3.69623	 400.0	 3	    1.05000	    0.95000;
	83	 1	 0.0	 0.0	 0.0	 0.0	 1	    1.10466	   -7.00089	 220.0	 3	    1.11000	    0.95000;
	84	 1	 0.0	 0.0	 0.0	 0.0	 1	    1.10239	   -9.43316	 220.0	 3	    1.11000	    0.95000;
	85	 1	 0.0	 0.0	 0.0	 0.0	 1	    1.10235	   -9.43739	 220.0	 3	    1.11000	    0.95000;
	86	 1	 44.148	 10.561	 0.0	 0.0	 1	    1.09895	   -5.07666	 220.0	 3	    1.11000	    0.95000;
	87	 1	 0.0	 0.0	 0.0	 0.0	 1	    1.09894	   -5.08385	 220.0	 3	    1.11000	    0.95000;
	88	 1	 0.0	 0.0	 0.0	 0.0	 1	    1.09786	   -8.58398	 220.0	 3	    1.11000	    0.95000;
	89	 1	 0.0	 0.0	 0.0	 0.0	 1	    1.09781	   -8.58990	 220.0	 3	    1.11000	    0.95000;
	90	 1	 0.0	 0.0	 0.0	 0.0	 1	    1.10094	   -4.54119	 220.0	 3	    1.11000	    0.95000;
	91	 1	 0.0	 0.0	 0.0	 0.0	 1	    1.10095	   -4.53481	 220.0	 3	    1.11000	    0.95000;
	92	 1	 0.0	 0.0	 0.0	 0.0	 1	    1.05000	   -2.57387	 400.0	 3	    1.05000	    0.95000;
	93	 1	 0.0	 0.0	 0.0	 0.0	 1	    1.05000	   -2.57557	 400.0	 3	    1.05000	    0.95000;
	94	 1	 0.0	 0.0	 0.0	 0.0	 1	    1.10576	   -8.37178	 220.0	 3	    1.11000	    0.95000;
	95	 1	 0.0	 0.0	 0.0	 0.0	 1	    1.10578	   -8.37830	 220.0	 3	    1.11000	    0.95000;
	96	 1	 0.0	 0.0	 0.0	 0.0	 1	    1.10538	   -8.23053	 220.0	 3	    1.11000	    0.95000;
	97	 1	 0.0	 0.0	 0.0	 0.0	 1	    1.10538	   -8.22451	 220.0	 3	    1.11000	    0.95000;
	98	 1	 17.111	 6.317	 0.0	 0.0	 1	    1.09527	   -8.98315	 220.0	 3	    1.11000	    0.95000;
	99	 1	 0.0	 0.0	 0.0	 0.0	 1	    1.09527	   -8.97469	 220.0	 3	    1.11000	    0.95000;
	100	 1	 0.0	 0.0	 0.0	 0.0	 1	    1.09731	   -9.10853	 220.0	 3	    1.11000	    0.95000;
	101	 1	 0.0	 0.0	 0.0	 0.0	 1	    1.09730	   -9.11338	 220.0	 3	    1.11000	    0.95000;
	102	 1	 0.0	 0.0	 0.0	 0.0	 1	    1.09451	  -14.60616	 220.0	 3	    1.11000	    0.95000;
	103	 1	 0.0	 0.0	 0.0	 0.0	 1	    1.09445	  -14.59490	 220.0	 3	    1.11000	    0.95000;
	104	 2	 13.999	 39.999	 0.0	 0.0	 1	    1.10569	   -9.07367	 220.0	 3	    1.11000	    0.95000;
	105	 2	 0.0	 0.0	 0.0	 0.0	 1	    1.10572	   -9.08132	 220.0	 3	    1.11000	    0.95000;
	106	 2	 6.999	 17.999	 0.0	 0.0	 1	    1.10537	   -7.88738	 220.0	 3	    1.11000	    0.95000;
	107	 2	 7.999	 14.999	 0.0	 0.0	 1	    1.10529	   -7.88391	 220.0	 3	    1.11000	    0.95000;
	108	 1	 52.726	 17.138	 0.0	 0.0	 1	    1.09501	   -7.99961	 220.0	 3	    1.11000	    0.95000;
	109	 1	 56.444	 10.902	 0.0	 0.0	 1	    1.09504	   -8.01039	 220.0	 3	    1.11000	    0.95000;
	110	 1	 0.0	 0.0	 0.0	 0.0	 1	    1.09262	  -10.27689	 220.0	 3	    1.11000	    0.95000;
	111	 1	 0.0	 0.0	 0.0	 0.0	 1	    1.09299	   -9.90677	 220.0	 3	    1.11000	    0.95000;
	112	 1	 0.0	 0.0	 0.0	 0.0	 1	    1.09299	   -9.90889	 220.0	 3	    1.11000	    0.95000;
	113	 1	 0.0	 0.0	 0.0	 0.0	 1	    1.09096	  -10.39824	 220.0	 3	    1.11000	    0.95000;
	114	 1	 0.0	 0.0	 0.0	 0.0	 1	    1.09098	  -10.39022	 220.0	 3	    1.11000	    0.95000;
	115	 1	 0.0	 0.0	 0.0	 0.0	 1	    1.04037	   -5.92768	 400.0	 3	    1.05000	    0.95000;
	116	 2	 0.0	 0.0	 0.0	 0.0	 1	    1.09468	   -9.33655	 220.0	 3	    1.11000	    0.95000;
	117	 2	 7.999	 14.999	 0.0	 0.0	 1	    1.09463	   -9.32694	 220.0	 3	    1.11000	    0.95000;
	118	 2	 5.499	 9.999	 0.0	 0.0	 1	    1.09863	   -9.84966	 220.0	 3	    1.11000	    0.95000;
	119	 1	 0.0	 0.0	 0.0	 0.0	 1	    1.09861	   -9.85303	 220.0	 3	    1.11000	    0.95000;
	120	 1	 0.0	 0.0	 0.0	 0.0	 1	    1.04292	   -7.36242	 400.0	 3	    1.05000	    0.95000;
	121	 1	 0.0	 0.0	 0.0	 0.0	 1	    1.04296	   -7.35651	 400.0	 3	    1.05000	    0.95000;
	122	 1	 0.0	 0.0	 0.0	 0.0	 1	    1.04440	   -5.37633	 400.0	 3	    1.05000	    0.95000;
	123	 1	 0.0	 0.0	 0.0	 0.0	 1	    1.04444	   -5.36993	 400.0	 3	    1.05000	    0.95000;
	124	 1	 0.0	 0.0	 0.0	 0.0	 1	    1.09285	  -10.29705	 220.0	 3	    1.11000	    0.95000;
	125	 2	 19.213	 21.474	 0.0	 0.0	 1	    1.11000	   -8.21831	 220.0	 3	    1.11000	    0.95000;
	126	 2	 30.672	 33.602	 0.0	 0.0	 1	    1.10993	   -8.23172	 220.0	 3	    1.11000	    0.95000;
	127	 2	 27.999	 65.999	 0.0	 0.0	 1	    1.03904	   -5.46788	 400.0	 3	    1.05000	    0.95000;
	128	 1	 0.0	 0.0	 0.0	 0.0	 1	    1.03904	   -5.47665	 400.0	 3	    1.05000	    0.95000;
	129	 1	 0.0	 0.0	 0.0	 0.0	 1	    1.09870	   -5.22695	 220.0	 3	    1.11000	    0.95000;
	130	 1	 0.0	 0.0	 0.0	 0.0	 1	    1.09871	   -5.22825	 220.0	 3	    1.11000	    0.95000;
	131	 1	 0.0	 0.0	 0.0	 0.0	 1	    1.10001	   -5.07059	 220.0	 3	    1.11000	    0.95000;
	132	 2	 271.999	 -62.001	 0.0	 0.0	 1	    1.09704	  -16.10323	 220.0	 3	    1.11000	    0.95000;
	133	 2	 266.5	 -24.8	 0.0	 0.0	 1	    1.09494	  -16.09011	 220.0	 3	    1.11000	    0.95000;
	134	 2	 14.931	 12.88	 0.0	 0.0	 1	    1.11000	   -3.94533	 220.0	 4	    1.11000	    0.95000;
	135	 2	 8.013	 6.525	 0.0	 0.0	 1	    1.10989	   -3.95465	 220.0	 4	    1.11000	    0.95000;
	136	 1	 0.0	 0.0	 0.0	 0.0	 1	    1.07282	   -7.63757	 220.0	 4	    1.11000	    0.95000;
	137	 1	 0.0	 0.0	 0.0	 0.0	 1	    1.07402	   -6.68037	 220.0	 4	    1.11000	    0.95000;
	138	 1	 0.0	 0.0	 0.0	 0.0	 1	    1.04187	   -5.71679	 400.0	 4	    1.05000	    0.95000;
	139	 1	 0.0	 0.0	 0.0	 0.0	 1	    1.04190	   -5.71894	 400.0	 4	    1.05000	    0.95000;
	140	 1	 0.0	 0.0	 0.0	 0.0	 1	    1.10455	  -10.12445	 220.0	 4	    1.11000	    0.95000;
	141	 1	 0.0	 0.0	 0.0	 0.0	 1	    1.08717	   -6.45200	 220.0	 4	    1.11000	    0.95000;
	142	 1	 0.0	 0.0	 0.0	 0.0	 1	    1.08717	   -6.45200	 220.0	 4	    1.11000	    0.95000;
	143	 1	 0.0	 0.0	 0.0	 0.0	 1	    1.08577	   -7.88472	 220.0	 4	    1.11000	    0.95000;
	144	 1	 0.0	 0.0	 0.0	 0.0	 1	    1.08680	   -7.17378	 220.0	 4	    1.11000	    0.95000;
	145	 1	 0.0	 0.0	 0.0	 0.0	 1	    1.08680	   -7.17378	 220.0	 4	    1.11000	    0.95000;
	146	 2	 55.255	 6.955	 0.0	 0.0	 1	    1.09915	   -6.04735	 220.0	 4	    1.11000	    0.95000;
	147	 2	 10.077	 8.4	 0.0	 0.0	 1	    1.09914	   -6.05486	 220.0	 4	    1.11000	    0.95000;
	148	 2	 11.5	 6.86	 0.0	 0.0	 1	    1.08683	   -5.38455	 220.0	 4	    1.11000	    0.95000;
	149	 1	 4.423	 1.347	 0.0	 0.0	 1	    1.08676	   -5.40352	 220.0	 4	    1.11000	    0.95000;
	150	 2	 12.633	 6.828	 0.0	 0.0	 1	    1.01865	   -7.73582	 400.0	 4	    1.05000	    0.95000;
	151	 2	 12.397	 10.045	 0.0	 0.0	 1	    1.01862	   -7.74792	 400.0	 4	    1.05000	    0.95000;
	152	 1	 0.0	 0.0	 0.0	 0.0	 1	    1.08826	  -10.77650	 220.0	 4	    1.11000	    0.95000;
	153	 1	 0.0	 0.0	 0.0	 0.0	 1	    1.07843	   -8.69181	 220.0	 4	    1.11000	    0.95000;
	154	 1	 0.0	 0.0	 0.0	 0.0	 1	    1.07846	   -8.68113	 220.0	 4	    1.11000	    0.95000;
	155	 2	 33.593	 44.976	 0.0	 0.0	 1	    1.07621	   -4.25133	 220.0	 4	    1.11000	    0.95000;
	156	 2	 33.832	 45.07	 0.0	 0.0	 1	    1.07829	   -2.49018	 220.0	 4	    1.11000	    0.95000;
	157	 1	 0.0	 0.0	 0.0	 0.0	 1	    1.07621	   -4.25133	 220.0	 4	    1.11000	    0.95000;
	158	 1	 0.0	 0.0	 0.0	 0.0	 1	    1.02590	   -3.25859	 400.0	 4	    1.05000	    0.95000;
	159	 2	 8.687	 17.49	 0.0	 0.0	 1	    1.02588	   -3.25137	 400.0	 4	    1.05000	    0.95000;
	160	 1	 0.0	 0.0	 0.0	 0.0	 1	    1.08695	   -6.59355	 220.0	 4	    1.11000	    0.95000;
	161	 1	 0.0	 0.0	 0.0	 0.0	 1	    1.08695	   -6.59355	 220.0	 4	    1.11000	    0.95000;
	162	 1	 0.0	 0.0	 0.0	 0.0	 1	    1.05000	   -6.45580	 400.0	 4	    1.05000	    0.95000;
	163	 1	 0.0	 0.0	 0.0	 0.0	 1	    1.04833	   -5.77851	 400.0	 4	    1.05000	    0.95000;
	164	 1	 0.0	 0.0	 0.0	 0.0	 1	    1.04832	   -5.77837	 400.0	 4	    1.05000	    0.95000;
	165	 2	 5.495	 9.587	 0.0	 0.0	 1	    1.09792	   -6.22646	 220.0	 4	    1.11000	    0.95000;
	166	 2	 10.099	 4.886	 0.0	 0.0	 1	    1.09784	   -6.24042	 220.0	 4	    1.11000	    0.95000;
	167	 1	 14.36	 13.623	 0.0	 0.0	 1	    1.09789	   -6.22774	 220.0	 4	    1.11000	    0.95000;
	168	 1	 0.0	 0.0	 0.0	 0.0	 1	    1.10071	  -14.90075	 220.0	 4	    1.11000	    0.95000;
	169	 1	 0.0	 0.0	 0.0	 0.0	 1	    1.09004	   -6.56726	 220.0	 4	    1.11000	    0.95000;
	170	 1	 0.0	 0.0	 0.0	 0.0	 1	    1.11000	  -10.79929	 220.0	 4	    1.11000	    0.95000;
	171	 1	 0.0	 0.0	 0.0	 0.0	 1	    1.10989	  -10.80218	 220.0	 4	    1.11000	    0.95000;
	172	 1	 0.0	 0.0	 0.0	 0.0	 1	    0.96229	  -10.37814	 400.0	 4	    1.05000	    0.95000;
	173	 1	 0.0	 0.0	 0.0	 0.0	 1	    0.96229	  -10.37814	 400.0	 4	    1.05000	    0.95000;
	174	 1	 0.0	 0.0	 0.0	 0.0	 1	    1.06568	   -9.49473	 220.0	 4	    1.11000	    0.95000;
	175	 1	 0.0	 0.0	 0.0	 0.0	 1	    1.06570	   -9.49614	 220.0	 4	    1.11000	    0.95000;
	176	 1	 0.0	 0.0	 0.0	 0.0	 1	    1.10831	  -11.02569	 220.0	 4	    1.11000	    0.95000;
	177	 1	 0.0	 0.0	 0.0	 0.0	 1	    1.07777	   -7.19548	 220.0	 4	    1.11000	    0.95000;
	178	 1	 0.0	 0.0	 0.0	 0.0	 1	    1.07780	   -7.19144	 220.0	 4	    1.11000	    0.95000;
	179	 1	 0.0	 0.0	 0.0	 0.0	 1	    1.08653	   -7.69580	 220.0	 4	    1.11000	    0.95000;
	180	 1	 0.0	 0.0	 0.0	 0.0	 1	    1.08653	   -7.69580	 220.0	 4	    1.11000	    0.95000;
	181	 1	 0.0	 0.0	 0.0	 0.0	 1	    1.06430	  -10.11824	 220.0	 4	    1.11000	    0.95000;
	182	 1	 0.0	 0.0	 0.0	 0.0	 1	    1.05404	  -13.41207	 220.0	 5	    1.11000	    0.95000;
	183	 1	 0.0	 0.0	 0.0	 0.0	 1	    1.08770	  -17.29916	 220.0	 5	    1.11000	    0.95000;
	184	 1	 0.0	 0.0	 0.0	 0.0	 1	    1.00463	  -16.35187	 400.0	 5	    1.05000	    0.95000;
	185	 1	 0.0	 0.0	 0.0	 0.0	 1	    1.00466	  -16.33969	 400.0	 5	    1.05000	    0.95000;
	186	 1	 0.0	 0.0	 0.0	 0.0	 1	    0.98918	  -21.33376	 400.0	 5	    1.05000	    0.95000;
	187	 1	 0.0	 0.0	 0.0	 0.0	 1	    0.98918	  -21.33985	 400.0	 5	    1.05000	    0.95000;
	188	 1	 0.0	 0.0	 0.0	 0.0	 1	    1.05218	  -19.28187	 220.0	 5	    1.11000	    0.95000;
	189	 1	 0.0	 0.0	 0.0	 0.0	 1	    1.05223	  -19.28326	 220.0	 5	    1.11000	    0.95000;
	190	 1	 0.0	 0.0	 0.0	 0.0	 1	    1.04770	  -15.68889	 220.0	 5	    1.11000	    0.95000;
	191	 1	 0.0	 0.0	 0.0	 0.0	 1	    1.04775	  -15.68579	 220.0	 5	    1.11000	    0.95000;
	192	 1	 0.0	 0.0	 0.0	 0.0	 1	    0.99450	  -15.45386	 400.0	 5	    1.05000	    0.95000;
	193	 1	 0.0	 0.0	 0.0	 0.0	 1	    1.05948	  -13.01882	 220.0	 5	    1.11000	    0.95000;
	194	 1	 0.0	 0.0	 0.0	 0.0	 1	    1.05948	  -13.01723	 220.0	 5	    1.11000	    0.95000;
	195	 1	 0.0	 0.0	 0.0	 0.0	 1	    0.99287	  -20.49790	 400.0	 5	    1.05000	    0.95000;
	196	 1	 0.0	 0.0	 0.0	 0.0	 1	    0.99286	  -20.49566	 400.0	 5	    1.05000	    0.95000;
	197	 1	 0.0	 0.0	 0.0	 0.0	 1	    1.05901	  -14.26034	 220.0	 5	    1.11000	    0.95000;
	198	 1	 0.0	 0.0	 0.0	 0.0	 1	    1.05899	  -14.25182	 220.0	 5	    1.11000	    0.95000;
	199	 1	 0.0	 0.0	 0.0	 0.0	 1	    0.99758	  -18.89648	 400.0	 5	    1.05000	    0.95000;
	200	 1	 0.0	 0.0	 0.0	 0.0	 1	    0.99763	  -18.87895	 400.0	 5	    1.05000	    0.95000;
...
];

%% generator data
%	bus	Pg	Qg	Qmax	Qmin	Vg	mBase	status	Pmax	Pmin	Pc1	Pc2	Qc1min	Qc1max	Qc2min	Qc2max	ramp_agc	ramp_10	ramp_30	ramp_q	apf
mpc.gen = [
	17	 165.382	 -4.176	 120.0	 -10.0	 1.10985	 233.2	 1	 200.0	 140.0	 0.0	 0.0	 0.0	 0.0	 0.0	 0.0	 0.0	 0.0	 0.0	 0.0	 0.0;
	18	 140.0	 119.979	 120.0	 -10.0	 1.11	 233.2	 1	 200.0	 140.0	 0.0	 0.0	 0.0	 0.0	 0.0	 0.0	 0.0	 0.0	 0.0	 0.0	 0.0;
	26	 0.0	 0.0	 220.0	 -10.0	 1.11	 430.5	 0	 370.0	 290.0	 0.0	 0.0	 0.0	 0.0	 0.0	 0.0	 0.0	 0.0	 0.0	 0.0	 0.0;
	26	 360.0	 95.391	 220.0	 -10.0	 1.11	 421.9	 1	 360.0	 290.0	 0.0	 0.0	 0.0	 0.0	 0.0	 0.0	 0.0	 0.0	 0.0	 0.0	 0.0;
	27	 360.0	 44.157	 220.0	 -10.0	 1.11	 421.9	 1	 360.0	 290.0	 0.0	 0.0	 0.0	 0.0	 0.0	 0.0	 0.0	 0.0	 0.0	 0.0	 0.0;
	27	 370.0	 44.157	 220.0	 -10.0	 1.11	 430.5	 1	 370.0	 290.0	 0.0	 0.0	 0.0	 0.0	 0.0	 0.0	 0.0	 0.0	 0.0	 0.0	 0.0;
	27	 370.0	 44.157	 220.0	 -10.0	 1.11	 430.5	 1	 370.0	 290.0	 0.0	 0.0	 0.0	 0.0	 0.0	 0.0	 0.0	 0.0	 0.0	 0.0	 0.0;
	28	 0.0	 0.0	 220.0	 -10.0	 1.05	 430.5	 0	 370.0	 290.0	 0.0	 0.0	 0.0	 0.0	 0.0	 0.0	 0.0	 0.0	 0.0	 0.0	 0.0;
	28	 290.0	 -10.0	 220.0	 -10.0	 1.05	 430.5	 1	 370.0	 290.0	 0.0	 0.0	 0.0	 0.0	 0.0	 0.0	 0.0	 0.0	 0.0	 0.0	 0.0;
	28	 290.0	 -10.0	 220.0	 -10.0	 1.05	 430.5	 1	 370.0	 290.0	 0.0	 0.0	 0.0	 0.0	 0.0	 0.0	 0.0	 0.0	 0.0	 0.0	 0.0;
	29	 290.0	 -10.0	 220.0	 -10.0	 1.04998	 430.5	 1	 370.0	 290.0	 0.0	 0.0	 0.0	 0.0	 0.0	 0.0	 0.0	 0.0	 0.0	 0.0	 0.0;
	29	 290.0	 -10.0	 220.0	 -10.0	 1.04998	 430.5	 1	 370.0	 290.0	 0.0	 0.0	 0.0	 0.0	 0.0	 0.0	 0.0	 0.0	 0.0	 0.0	 0.0;
	29	 290.0	 -10.0	 220.0	 -10.0	 1.04998	 430.5	 1	 370.0	 290.0	 0.0	 0.0	 0.0	 0.0	 0.0	 0.0	 0.0	 0.0	 0.0	 0.0	 0.0;
	43	 215.0	 -20.0	 120.0	 -20.0	 1.10083	 246.2	 1	 215.0	 135.0	 0.0	 0.0	 0.0	 0.0	 0.0	 0.0	 0.0	 0.0	 0.0	 0.0	 0.0;
	43	 0.0	 0.0	 120.0	 -20.0	 1.10083	 275.3	 0	 247.8	 135.0	 0.0	 0.0	 0.0	 0.0	 0.0	 0.0	 0.0	 0.0	 0.0	 0.0	 0.0;
	43	 0.0	 0.0	 120.0	 -20.0	 1.10083	 275.3	 0	 247.8	 135.0	 0.0	 0.0	 0.0	 0.0	 0.0	 0.0	 0.0	 0.0	 0.0	 0.0	 0.0;
	44	 225.0	 -20.0	 120.0	 -20.0	 1.1008	 255.0	 1	 225.0	 135.0	 0.0	 0.0	 0.0	 0.0	 0.0	 0.0	 0.0	 0.0	 0.0	 0.0	 0.0;
	44	 225.0	 -20.0	 120.0	 -20.0	 1.1008	 255.0	 1	 225.0	 135.0	 0.0	 0.0	 0.0	 0.0	 0.0	 0.0	 0.0	 0.0	 0.0	 0.0	 0.0;
	44	 0.0	 0.0	 120.0	 -20.0	 1.1008	 255.0	 0	 225.0	 135.0	 0.0	 0.0	 0.0	 0.0	 0.0	 0.0	 0.0	 0.0	 0.0	 0.0	 0.0;
	45	 0.0	 0.0	 350.0	 -40.0	 1.03472	 610.3	 0	 500.0	 350.0	 0.0	 0.0	 0.0	 0.0	 0.0	 0.0	 0.0	 0.0	 0.0	 0.0	 0.0;
	45	 500.0	 -40.0	 350.0	 -40.0	 1.03472	 610.3	 1	 500.0	 350.0	 0.0	 0.0	 0.0	 0.0	 0.0	 0.0	 0.0	 0.0	 0.0	 0.0	 0.0;
	55	 130.0	 -20.0	 120.0	 -20.0	 1.0921	 255.0	 1	 225.0	 130.0	 0.0	 0.0	 0.0	 0.0	 0.0	 0.0	 0.0	 0.0	 0.0	 0.0	 0.0;
	56	 130.0	 -20.0	 120.0	 -20.0	 1.09207	 255.0	 1	 225.0	 130.0	 0.0	 0.0	 0.0	 0.0	 0.0	 0.0	 0.0	 0.0	 0.0	 0.0	 0.0;
	56	 0.0	 0.0	 120.0	 -20.0	 1.09207	 255.0	 0	 225.0	 130.0	 0.0	 0.0	 0.0	 0.0	 0.0	 0.0	 0.0	 0.0	 0.0	 0.0	 0.0;
	57	 130.0	 -20.0	 120.0	 -20.0	 1.03933	 255.0	 1	 225.0	 130.0	 0.0	 0.0	 0.0	 0.0	 0.0	 0.0	 0.0	 0.0	 0.0	 0.0	 0.0;
	58	 0.0	 0.0	 120.0	 -20.0	 1.03932	 255.0	 0	 225.0	 130.0	 0.0	 0.0	 0.0	 0.0	 0.0	 0.0	 0.0	 0.0	 0.0	 0.0	 0.0;
	58	 130.0	 -20.0	 120.0	 -20.0	 1.03932	 255.0	 1	 225.0	 130.0	 0.0	 0.0	 0.0	 0.0	 0.0	 0.0	 0.0	 0.0	 0.0	 0.0	 0.0;
	58	 0.0	 0.0	 120.0	 -20.0	 1.03932	 255.0	 0	 225.0	 130.0	 0.0	 0.0	 0.0	 0.0	 0.0	 0.0	 0.0	 0.0	 0.0	 0.0	 0.0;
	59	 63.0	 0.0	 28.8	 0.0	 1.09145	 69.3	 1	 63.0	 63.0	 0.0	 0.0	 0.0	 0.0	 0.0	 0.0	 0.0	 0.0	 0.0	 0.0	 0.0;
	78	 140.0	 21.465	 105.0	 5.0	 1.09494	 248.3	 1	 225.0	 140.0	 0.0	 0.0	 0.0	 0.0	 0.0	 0.0	 0.0	 0.0	 0.0	 0.0	 0.0;
	78	 140.0	 21.465	 105.0	 5.0	 1.09494	 248.3	 1	 225.0	 140.0	 0.0	 0.0	 0.0	 0.0	 0.0	 0.0	 0.0	 0.0	 0.0	 0.0	 0.0;
	79	 0.0	 0.0	 105.0	 5.0	 1.09663	 243.8	 0	 220.0	 140.0	 0.0	 0.0	 0.0	 0.0	 0.0	 0.0	 0.0	 0.0	 0.0	 0.0	 0.0;
	79	 0.0	 0.0	 105.0	 5.0	 1.09663	 248.3	 0	 225.0	 140.0	 0.0	 0.0	 0.0	 0.0	 0.0	 0.0	 0.0	 0.0	 0.0	 0.0	 0.0;
	79	 140.0	 5.0	 105.0	 5.0	 1.09663	 248.3	 1	 225.0	 140.0	 0.0	 0.0	 0.0	 0.0	 0.0	 0.0	 0.0	 0.0	 0.0	 0.0	 0.0;
	82	 220.0	 -37.0	 192.0	 -37.0	 1.04333	 425.8	 1	 380.0	 220.0	 0.0	 0.0	 0.0	 0.0	 0.0	 0.0	 0.0	 0.0	 0.0	 0.0	 0.0;
	82	 220.0	 -27.698	 174.0	 -27.698	 1.04333	 408.9	 1	 370.0	 220.0	 0.0	 0.0	 0.0	 0.0	 0.0	 0.0	 0.0	 0.0	 0.0	 0.0	 0.0;
	104	 120.0	 21.094	 113.0	 -48.0	 1.10569	 251.8	 1	 225.0	 120.0	 0.0	 0.0	 0.0	 0.0	 0.0	 0.0	 0.0	 0.0	 0.0	 0.0	 0.0;
	105	 0.0	 0.0	 113.0	 -48.0	 1.10572	 251.8	 0	 225.0	 134.0	 0.0	 0.0	 0.0	 0.0	 0.0	 0.0	 0.0	 0.0	 0.0	 0.0	 0.0;
	106	 79.0	 38.462	 90.0	 -5.0	 1.10537	 150.0	 1	 120.0	 79.0	 0.0	 0.0	 0.0	 0.0	 0.0	 0.0	 0.0	 0.0	 0.0	 0.0	 0.0;
	107	 79.0	 51.024	 90.0	 -5.0	 1.10529	 150.0	 1	 120.0	 79.0	 0.0	 0.0	 0.0	 0.0	 0.0	 0.0	 0.0	 0.0	 0.0	 0.0	 0.0;
	116	 0.0	 0.0	 90.0	 -20.0	 1.09468	 150.0	 0	 120.0	 90.0	 0.0	 0.0	 0.0	 0.0	 0.0	 0.0	 0.0	 0.0	 0.0	 0.0	 0.0;
	117	 70.0	 -20.0	 90.0	 -20.0	 1.09463	 150.0	 1	 120.0	 70.0	 0.0	 0.0	 0.0	 0.0	 0.0	 0.0	 0.0	 0.0	 0.0	 0.0	 0.0;
	118	 80.0	 33.0	 68.0	 33.0	 1.09863	 129.3	 1	 110.0	 80.0	 0.0	 0.0	 0.0	 0.0	 0.0	 0.0	 0.0	 0.0	 0.0	 0.0	 0.0;
	125	 160.0	 80.757	 113.0	 -11.0	 1.11	 242.9	 1	 215.0	 160.0	 0.0	 0.0	 0.0	 0.0	 0.0	 0.0	 0.0	 0.0	 0.0	 0.0	 0.0;
	126	 140.0	 83.994	 84.0	 -5.0	 1.10993	 240.2	 1	 225.0	 140.0	 0.0	 0.0	 0.0	 0.0	 0.0	 0.0	 0.0	 0.0	 0.0	 0.0	 0.0;
	126	 0.0	 0.0	 80.0	 -5.0	 1.10993	 229.4	 0	 215.0	 160.0	 0.0	 0.0	 0.0	 0.0	 0.0	 0.0	 0.0	 0.0	 0.0	 0.0	 0.0;
	127	 140.0	 -7.5	 79.0	 -7.5	 1.03904	 238.5	 1	 225.0	 140.0	 0.0	 0.0	 0.0	 0.0	 0.0	 0.0	 0.0	 0.0	 0.0	 0.0	 0.0;
	127	 160.0	 -10.0	 100.0	 -10.0	 1.03904	 241.7	 1	 220.0	 160.0	 0.0	 0.0	 0.0	 0.0	 0.0	 0.0	 0.0	 0.0	 0.0	 0.0	 0.0;
	132	 0.0	 0.0	 0.0	 0.0	 1.09704	 0.0	 0	 0.0	 0.0	 0.0	 0.0	 0.0	 0.0	 0.0	 0.0	 0.0	 0.0	 0.0	 0.0	 0.0;
	132	 0.0	 0.0	 0.0	 0.0	 1.09704	 0.0	 0	 0.0	 0.0	 0.0	 0.0	 0.0	 0.0	 0.0	 0.0	 0.0	 0.0	 0.0	 0.0	 0.0;
	133	 0.0	 0.0	 0.0	 0.0	 1.09494	 0.0	 0	 0.0	 0.0	 0.0	 0.0	 0.0	 0.0	 0.0	 0.0	 0.0	 0.0	 0.0	 0.0	 0.0;
	133	 0.0	 0.0	 0.0	 0.0	 1.09494	 0.0	 0	 0.0	 0.0	 0.0	 0.0	 0.0	 0.0	 0.0	 0.0	 0.0	 0.0	 0.0	 0.0	 0.0;
	134	 0.0	 0.0	 90.0	 0.0	 1.11	 150.0	 0	 120.0	 102.0	 0.0	 0.0	 0.0	 0.0	 0.0	 0.0	 0.0	 0.0	 0.0	 0.0	 0.0;
	134	 120.0	 77.375	 90.001	 0.0	 1.11	 150.0	 1	 120.0	 100.0	 0.0	 0.0	 0.0	 0.0	 0.0	 0.0	 0.0	 0.0	 0.0	 0.0	 0.0;
	135	 0.0	 0.0	 90.0	 0.0	 1.10989	 150.0	 0	 120.0	 102.0	 0.0	 0.0	 0.0	 0.0	 0.0	 0.0	 0.0	 0.0	 0.0	 0.0	 0.0;
	146	 50.0	 -0.001	 12.0	 -0.001	 1.09915	 51.4	 1	 50.0	 30.0	 0.0	 0.0	 0.0	 0.0	 0.0	 0.0	 0.0	 0.0	 0.0	 0.0	 0.0;
	146	 50.0	 -0.001	 12.0	 -0.001	 1.09915	 51.4	 1	 50.0	 30.0	 0.0	 0.0	 0.0	 0.0	 0.0	 0.0	 0.0	 0.0	 0.0	 0.0	 0.0;
	147	 0.0	 0.0	 90.0	 0.0	 1.09914	 150.0	 0	 120.0	 90.0	 0.0	 0.0	 0.0	 0.0	 0.0	 0.0	 0.0	 0.0	 0.0	 0.0	 0.0;
	148	 168.217	 0.0	 120.0	 0.0	 1.08683	 252.4	 1	 222.0	 90.0	 0.0	 0.0	 0.0	 0.0	 0.0	 0.0	 0.0	 0.0	 0.0	 0.0	 0.0;
	148	 0.0	 0.0	 120.0	 0.0	 1.08683	 237.5	 0	 205.0	 135.0	 0.0	 0.0	 0.0	 0.0	 0.0	 0.0	 0.0	 0.0	 0.0	 0.0	 0.0;
	148	 0.0	 0.0	 120.0	 0.0	 1.08683	 237.5	 0	 205.0	 135.0	 0.0	 0.0	 0.0	 0.0	 0.0	 0.0	 0.0	 0.0	 0.0	 0.0	 0.0;
	148	 168.217	 0.0	 120.0	 0.0	 1.08683	 252.4	 1	 222.0	 90.0	 0.0	 0.0	 0.0	 0.0	 0.0	 0.0	 0.0	 0.0	 0.0	 0.0	 0.0;
	150	 222.0	 0.009	 120.0	 0.0	 1.01865	 252.4	 1	 222.0	 90.0	 0.0	 0.0	 0.0	 0.0	 0.0	 0.0	 0.0	 0.0	 0.0	 0.0	 0.0;
	151	 222.0	 42.606	 120.0	 0.0	 1.01862	 252.4	 1	 222.0	 90.0	 0.0	 0.0	 0.0	 0.0	 0.0	 0.0	 0.0	 0.0	 0.0	 0.0	 0.0;
	151	 0.0	 0.0	 120.0	 0.0	 1.01862	 252.4	 0	 222.0	 90.0	 0.0	 0.0	 0.0	 0.0	 0.0	 0.0	 0.0	 0.0	 0.0	 0.0	 0.0;
	155	 94.0	 0.653	 120.0	 0.0	 1.07621	 263.9	 1	 235.0	 94.0	 0.0	 0.0	 0.0	 0.0	 0.0	 0.0	 0.0	 0.0	 0.0	 0.0	 0.0;
	155	 94.0	 0.653	 120.0	 0.0	 1.07621	 263.9	 1	 235.0	 94.0	 0.0	 0.0	 0.0	 0.0	 0.0	 0.0	 0.0	 0.0	 0.0	 0.0	 0.0;
	155	 0.0	 0.0	 120.0	 0.0	 1.07621	 237.5	 0	 205.0	 130.0	 0.0	 0.0	 0.0	 0.0	 0.0	 0.0	 0.0	 0.0	 0.0	 0.0	 0.0;
	155	 104.0	 0.653	 120.0	 0.0	 1.07621	 287.3	 1	 261.0	 104.0	 0.0	 0.0	 0.0	 0.0	 0.0	 0.0	 0.0	 0.0	 0.0	 0.0	 0.0;
	156	 0.0	 0.0	 120.0	 0.0	 1.07829	 237.5	 0	 205.0	 130.0	 0.0	 0.0	 0.0	 0.0	 0.0	 0.0	 0.0	 0.0	 0.0	 0.0	 0.0;
	156	 193.074	 2.098	 120.0	 0.0	 1.07829	 237.5	 1	 205.0	 130.0	 0.0	 0.0	 0.0	 0.0	 0.0	 0.0	 0.0	 0.0	 0.0	 0.0	 0.0;
	156	 193.738	 2.098	 120.0	 0.0	 1.07829	 238.4	 1	 206.0	 120.0	 0.0	 0.0	 0.0	 0.0	 0.0	 0.0	 0.0	 0.0	 0.0	 0.0	 0.0;
	156	 193.738	 2.098	 120.0	 0.0	 1.07829	 238.4	 1	 206.0	 120.0	 0.0	 0.0	 0.0	 0.0	 0.0	 0.0	 0.0	 0.0	 0.0	 0.0	 0.0;
	159	 120.0	 0.0	 120.0	 0.0	 1.02588	 238.4	 1	 206.0	 120.0	 0.0	 0.0	 0.0	 0.0	 0.0	 0.0	 0.0	 0.0	 0.0	 0.0	 0.0;
	165	 200.0	 0.0	 120.0	 0.0	 1.09792	 233.2	 1	 200.0	 150.0	 0.0	 0.0	 0.0	 0.0	 0.0	 0.0	 0.0	 0.0	 0.0	 0.0	 0.0;
	165	 0.0	 0.0	 120.0	 0.0	 1.09792	 233.2	 0	 200.0	 150.0	 0.0	 0.0	 0.0	 0.0	 0.0	 0.0	 0.0	 0.0	 0.0	 0.0	 0.0;
	166	 200.0	 0.0	 120.0	 0.0	 1.09784	 233.2	 1	 200.0	 150.0	 0.0	 0.0	 0.0	 0.0	 0.0	 0.0	 0.0	 0.0	 0.0	 0.0	 0.0;
	165	 0.0	 0.0	 120.0	 0.0	 1.09792	 233.2	 0	 200.0	 150.0	 0.0	 0.0	 0.0	 0.0	 0.0	 0.0	 0.0	 0.0	 0.0	 0.0	 0.0;
	205	 0.0	 -30.0	 80.0	 -30.0	 0.9827	 196.1	 1	 0.0	 0.0	 0.0	 0.0	 0.0	 0.0	 0.0	 0.0	 0.0	 0.0	 0.0	 0.0	 0.0;
	205	 0.0	 -30.0	 80.0	 -30.0	 0.9827	 196.1	 1	 0.0	 0.0	 0.0	 0.0	 0.0	 0.0	 0.0	 0.0	 0.0	 0.0	 0.0	 0.0	 0.0;
	205	 0.0	 -30.0	 80.0	 -30.0	 0.9827	 196.1	 1	 0.0	 0.0	 0.0	 0.0	 0.0	 0.0	 0.0	 0.0	 0.0	 0.0	 0.0	 0.0	 0.0;
	206	 0.0	 -30.0	 80.0	 -30.0	 0.9827	 196.1	 1	 0.0	 0.0	 0.0	 0.0	 0.0	 0.0	 0.0	 0.0	 0.0	 0.0	 0.0	 0.0	 0.0;
	215	 37.079	 0.0	 20.0	 0.0	 1.11924	 58.5	 1	 37.079	 37.079	 0.0	 0.0	 0.0	 0.0	 0.0	 0.0	 0.0	 0.0	 0.0	 0.0	 0.0;
	215	 33.708	 0.0	 20.0	 0.0	 1.11924	 53.9	 1	 33.708	 33.708	 0.0	 0.0	 0.0	 0.0	 0.0	 0.0	 0.0	 0.0	 0.0	 0.0	 0.0;
	215	 33.708	 0.0	 20.0	 0.0	 1.11924	 53.9	 1	 33.708	 33.708	 0.0	 0.0	 0.0	 0.0	 0.0	 0.0	 0.0	 0.0	 0.0	 0.0	 0.0;
	215	 15.506	 0.0	 20.0	 0.0	 1.11924	 30.5	 1	 15.506	 15.506	 0.0	 0.0	 0.0	 0.0	 0.0	 0.0	 0.0	 0.0	 0.0	 0.0	 0.0;
	229	 5.5	 1.5	 1.5	 0.0	 1.11205	 7.3	 1	 5.5	 5.5	 0.0	 0.0	 0.0	 0.0	 0.0	 0.0	 0.0	 0.0	 0.0	 0.0	 0.0;
	230	 5.5	 7.0	 7.0	 0.0	 1.11242	 10.0	 1	 5.5	 5.5	 0.0	 0.0	 0.0	 0.0	 0.0	 0.0	 0.0	 0.0	 0.0	 0.0	 0.0;
	239	 3.0	 8.0	 8.0	 0.0	 1.07312	 15.4	 1	 3.0	 3.0	 0.0	 0.0	 0.0	 0.0	 0.0	 0.0	 0.0	 0.0	 0.0	 0.0	 0.0;
	246	 337.394	 149.786	 220.0	 -14.0	 1.09054	 430.5	 1	 370.0	 290.0	 0.0	 0.0	 0.0	 0.0	 0.0	 0.0	 0.0	 0.0	 0.0	 0.0	 0.0;
	291	 2.0	 2.0	 2.0	 0.0	 1.10311	 3.2	 1	 2.0	 2.0	 0.0	 0.0	 0.0	 0.0	 0.0	 0.0	 0.0	 0.0	 0.0	 0.0	 0.0;
	294	 2.0	 2.0	 2.0	 0.0	 1.07818	 4.8	 1	 2.0	 2.0	 0.0	 0.0	 0.0	 0.0	 0.0	 0.0	 0.0	 0.0	 0.0	 0.0	 0.0;
	306	 9.167	 7.0	 7.0	 0.0	 1.10628	 24.0	 1	 9.167	 9.167	 0.0	 0.0	 0.0	 0.0	 0.0	 0.0	 0.0	 0.0	 0.0	 0.0	 0.0;
	306	 16.296	 7.0	 7.0	 0.0	 1.10628	 27.9	 1	 16.296	 16.296	 0.0	 0.0	 0.0	 0.0	 0.0	 0.0	 0.0	 0.0	 0.0	 0.0	 0.0;
	306	 11.204	 7.617	 7.617	 6.0	 1.10628	 31.0	 1	 11.204	 11.204	 0.0	 0.0	 0.0	 0.0	 0.0	 0.0	 0.0	 0.0	 0.0	 0.0	 0.0;
	306	 9.167	 7.0	 7.0	 0.0	 1.10628	 26.9	 1	 9.167	 9.167	 0.0	 0.0	 0.0	 0.0	 0.0	 0.0	 0.0	 0.0	 0.0	 0.0	 0.0;
	306	 9.167	 7.929	 7.929	 0.0	 1.10628	 28.1	 1	 9.167	 9.167	 0.0	 0.0	 0.0	 0.0	 0.0	 0.0	 0.0	 0.0	 0.0	 0.0	 0.0;
	307	 36.5	 15.0	 15.0	 0.0	 1.11175	 57.0	 1	 36.5	 36.5	 0.0	 0.0	 0.0	 0.0	 0.0	 0.0	 0.0	 0.0	 0.0	 0.0	 0.0;
	307	 36.5	 15.0	 15.0	 0.0	 1.11175	 57.0	 1	 36.5	 36.5	 0.0	 0.0	 0.0	 0.0	 0.0	 0.0	 0.0	 0.0	 0.0	 0.0	 0.0;
	308	 32.0	 15.0	 15.0	 0.0	 1.11828	 36.7	 1	 32.0	 32.0	 0.0	 0.0	 0.0	 0.0	 0.0	 0.0	 0.0	 0.0	 0.0	 0.0	 0.0;
	308	 40.0	 16.829	 16.829	 0.0	 1.11828	 57.5	 1	 40.0	 40.0	 0.0	 0.0	 0.0	 0.0	 0.0	 0.0	 0.0	 0.0	 0.0	 0.0	 0.0;
	310	 35.0	 20.0	 20.0	 0.0	 1.11394	 53.9	 1	 35.0	 35.0	 0.0	 0.0	 0.0	 0.0	 0.0	 0.0	 0.0	 0.0	 0.0	 0.0	 0.0;
	310	 75.0	 25.599	 25.599	 0.0	 1.11394	 103.2	 1	 75.0	 75.0	 0.0	 0.0	 0.0	 0.0	 0.0	 0.0	 0.0	 0.0	 0.0	 0.0	 0.0;
	311	 45.0	 40.0	 40.0	 0.0	 1.11749	 64.0	 1	 45.0	 45.0	 0.0	 0.0	 0.0	 0.0	 0.0	 0.0	 0.0	 0.0	 0.0	 0.0	 0.0;
	319	 2.0	 3.0	 3.0	 0.0	 1.11164	 4.1	 1	 2.0	 2.0	 0.0	 0.0	 0.0	 0.0	 0.0	 0.0	 0.0	 0.0	 0.0	 0.0	 0.0;
	345	 1.0	 1.0	 1.0	 0.0	 1.07985	 1.9	 1	 1.0	 1.0	 0.0	 0.0	 0.0	 0.0	 0.0	 0.0	 0.0	 0.0	 0.0	 0.0	 0.0;
	362	 40.0	 0.0	 12.0	 0.0	 1.06604	 47.8	 1	 40.0	 40.0	 0.0	 0.0	 0.0	 0.0	 0.0	 0.0	 0.0	 0.0	 0.0	 0.0	 0.0;
	363	 40.0	 12.0	 12.0	 0.0	 1.08048	 47.8	 1	 40.0	 40.0	 0.0	 0.0	 0.0	 0.0	 0.0	 0.0	 0.0	 0.0	 0.0	 0.0	 0.0;
	364	 0.0	 0.0	 12.0	 0.0	 1.06946	 47.8	 0	 0.0	 0.0	 0.0	 0.0	 0.0	 0.0	 0.0	 0.0	 0.0	 0.0	 0.0	 0.0	 0.0;
	364	 46.0	 0.0	 12.0	 0.0	 1.06946	 71.0	 1	 46.0	 46.0	 0.0	 0.0	 0.0	 0.0	 0.0	 0.0	 0.0	 0.0	 0.0	 0.0	 0.0;
	365	 40.0	 12.0	 12.0	 0.0	 1.08692	 47.8	 1	 40.0	 40.0	 0.0	 0.0	 0.0	 0.0	 0.0	 0.0	 0.0	 0.0	 0.0	 0.0	 0.0;
	365	 40.0	 12.0	 12.0	 0.0	 1.08692	 47.8	 1	 40.0	 40.0	 0.0	 0.0	 0.0	 0.0	 0.0	 0.0	 0.0	 0.0	 0.0	 0.0	 0.0;
	368	 1.0	 0.0	 1.0	 0.0	 1.06781	 1.9	 1	 1.0	 1.0	 0.0	 0.0	 0.0	 0.0	 0.0	 0.0	 0.0	 0.0	 0.0	 0.0	 0.0;
	382	 37.053	 4.836	 10.0	 0.0	 1.09927	 55.9	 1	 55.0	 15.0	 0.0	 0.0	 0.0	 0.0	 0.0	 0.0	 0.0	 0.0	 0.0	 0.0	 0.0;
	382	 186.61	 31.002	 120.0	 -10.0	 1.09927	 255.9	 1	 226.0	 120.0	 0.0	 0.0	 0.0	 0.0	 0.0	 0.0	 0.0	 0.0	 0.0	 0.0	 0.0;
	383	 55.0	 0.0	 10.0	 0.0	 1.10897	 55.9	 1	 55.0	 15.0	 0.0	 0.0	 0.0	 0.0	 0.0	 0.0	 0.0	 0.0	 0.0	 0.0	 0.0;
	386	 2.5	 2.0	 2.0	 0.0	 1.10761	 4.8	 1	 2.5	 2.5	 0.0	 0.0	 0.0	 0.0	 0.0	 0.0	 0.0	 0.0	 0.0	 0.0	 0.0;
	395	 1.0	 1.0	 1.0	 0.0	 1.08355	 1.9	 1	 1.0	 1.0	 0.0	 0.0	 0.0	 0.0	 0.0	 0.0	 0.0	 0.0	 0.0	 0.0	 0.0;
	421	 4.0	 4.0	 4.0	 0.0	 1.08464	 7.7	 1	 4.0	 4.0	 0.0	 0.0	 0.0	 0.0	 0.0	 0.0	 0.0	 0.0	 0.0	 0.0	 0.0;
	426	 3.0	 3.0	 3.0	 0.0	 1.11014	 4.5	 1	 3.0	 3.0	 0.0	 0.0	 0.0	 0.0	 0.0	 0.0	 0.0	 0.0	 0.0	 0.0	 0.0;
	431	 5.0	 0.0	 8.0	 0.0	 1.07031	 13.6	 1	 5.0	 5.0	 0.0	 0.0	 0.0	 0.0	 0.0	 0.0	 0.0	 0.0	 0.0	 0.0	 0.0;
	440	 2.0	 2.0	 2.0	 0.0	 1.06352	 3.6	 1	 2.0	 2.0	 0.0	 0.0	 0.0	 0.0	 0.0	 0.0	 0.0	 0.0	 0.0	 0.0	 0.0;
	447	 3.5	 0.0	 20.0	 0.0	 1.0805	 21.3	 1	 3.5	 3.5	 0.0	 0.0	 0.0	 0.0	 0.0	 0.0	 0.0	 0.0	 0.0	 0.0	 0.0;
	447	 3.5	 0.0	 20.0	 0.0	 1.0805	 21.3	 1	 3.5	 3.5	 0.0	 0.0	 0.0	 0.0	 0.0	 0.0	 0.0	 0.0	 0.0	 0.0	 0.0;
	463	 0.0	 0.0	 2.0	 0.0	 1.07913	 4.0	 1	 0.0	 0.0	 0.0	 0.0	 0.0	 0.0	 0.0	 0.0	 0.0	 0.0	 0.0	 0.0	 0.0;
	482	 1.4	 0.7	 0.7	 0.0	 1.05566	 1.7	 1	 1.4	 1.4	 0.0	 0.0	 0.0	 0.0	 0.0	 0.0	 0.0	 0.0	 0.0	 0.0	 0.0;
	490	 3.0	 3.0	 3.0	 0.0	 1.09537	 5.3	 1	 3.0	 3.0	 0.0	 0.0	 0.0	 0.0	 0.0	 0.0	 0.0	 0.0	 0.0	 0.0	 0.0;
	522	 0.0	 0.0	 1.0	 0.0	 1.10512	 1.9	 1	 0.0	 0.0	 0.0	 0.0	 0.0	 0.0	 0.0	 0.0	 0.0	 0.0	 0.0	 0.0	 0.0;
	533	 0.5	 0.0	 1.0	 0.0	 1.07763	 1.9	 1	 0.5	 0.5	 0.0	 0.0	 0.0	 0.0	 0.0	 0.0	 0.0	 0.0	 0.0	 0.0	 0.0;
	534	 35.89	 11.266	 14.0	 0.0	 1.10589	 53.9	 1	 35.89	 35.89	 0.0	 0.0	 0.0	 0.0	 0.0	 0.0	 0.0	 0.0	 0.0	 0.0	 0.0;
	534	 22.086	 11.266	 14.0	 0.0	 1.10589	 34.9	 1	 22.086	 22.086	 0.0	 0.0	 0.0	 0.0	 0.0	 0.0	 0.0	 0.0	 0.0	 0.0	 0.0;
	534	 22.086	 11.266	 14.0	 0.0	 1.10589	 34.9	 1	 22.086	 22.086	 0.0	 0.0	 0.0	 0.0	 0.0	 0.0	 0.0	 0.0	 0.0	 0.0	 0.0;
	534	 72.469	 11.266	 14.0	 0.0	 1.10589	 105.9	 1	 72.469	 72.469	 0.0	 0.0	 0.0	 0.0	 0.0	 0.0	 0.0	 0.0	 0.0	 0.0	 0.0;
	534	 72.469	 11.266	 14.0	 0.0	 1.10589	 105.9	 1	 72.469	 72.469	 0.0	 0.0	 0.0	 0.0	 0.0	 0.0	 0.0	 0.0	 0.0	 0.0	 0.0;
	535	 24.573	 16.6	 17.5	 0.0	 1.10658	 36.5	 1	 24.573	 24.573	 0.0	 0.0	 0.0	 0.0	 0.0	 0.0	 0.0	 0.0	 0.0	 0.0	 0.0;
	535	 23.805	 16.6	 17.5	 0.0	 1.10658	 35.6	 1	 23.805	 23.805	 0.0	 0.0	 0.0	 0.0	 0.0	 0.0	 0.0	 0.0	 0.0	 0.0	 0.0;
	535	 95.99	 16.6	 17.5	 0.0	 1.10658	 126.2	 1	 95.99	 95.99	 0.0	 0.0	 0.0	 0.0	 0.0	 0.0	 0.0	 0.0	 0.0	 0.0	 0.0;
	535	 80.631	 16.6	 17.5	 0.0	 1.10658	 106.4	 1	 80.631	 80.631	 0.0	 0.0	 0.0	 0.0	 0.0	 0.0	 0.0	 0.0	 0.0	 0.0	 0.0;
	549	 1.0	 0.7	 0.7	 0.0	 1.08488	 1.7	 1	 1.0	 1.0	 0.0	 0.0	 0.0	 0.0	 0.0	 0.0	 0.0	 0.0	 0.0	 0.0	 0.0;
	557	 25.724	 5.051	 5.051	 0.0	 1.08904	 34.4	 1	 25.724	 25.724	 0.0	 0.0	 0.0	 0.0	 0.0	 0.0	 0.0	 0.0	 0.0	 0.0	 0.0;
	557	 21.184	 5.051	 5.051	 0.0	 1.08904	 28.5	 1	 21.184	 21.184	 0.0	 0.0	 0.0	 0.0	 0.0	 0.0	 0.0	 0.0	 0.0	 0.0	 0.0;
	557	 19.671	 5.0	 5.0	 0.0	 1.08904	 26.5	 1	 19.671	 19.671	 0.0	 0.0	 0.0	 0.0	 0.0	 0.0	 0.0	 0.0	 0.0	 0.0	 0.0;
	557	 22.697	 5.051	 5.051	 0.0	 1.08904	 30.4	 1	 22.697	 22.697	 0.0	 0.0	 0.0	 0.0	 0.0	 0.0	 0.0	 0.0	 0.0	 0.0	 0.0;
	557	 25.724	 5.051	 5.051	 0.0	 1.08904	 34.4	 1	 25.724	 25.724	 0.0	 0.0	 0.0	 0.0	 0.0	 0.0	 0.0	 0.0	 0.0	 0.0	 0.0;
	558	 31.032	 5.064	 5.064	 0.0	 1.08328	 34.4	 1	 31.032	 31.032	 0.0	 0.0	 0.0	 0.0	 0.0	 0.0	 0.0	 0.0	 0.0	 0.0	 0.0;
	558	 31.032	 5.064	 5.064	 0.0	 1.08328	 34.4	 1	 31.032	 31.032	 0.0	 0.0	 0.0	 0.0	 0.0	 0.0	 0.0	 0.0	 0.0	 0.0	 0.0;
	558	 22.817	 5.0	 5.0	 0.0	 1.08328	 26.5	 1	 22.817	 22.817	 0.0	 0.0	 0.0	 0.0	 0.0	 0.0	 0.0	 0.0	 0.0	 0.0	 0.0;
	558	 30.119	 5.064	 5.064	 0.0	 1.08328	 34.4	 1	 30.119	 30.119	 0.0	 0.0	 0.0	 0.0	 0.0	 0.0	 0.0	 0.0	 0.0	 0.0	 0.0;
	581	 3.0	 3.0	 3.0	 0.0	 1.07621	 5.3	 1	 3.0	 3.0	 0.0	 0.0	 0.0	 0.0	 0.0	 0.0	 0.0	 0.0	 0.0	 0.0	 0.0;
	594	 2.07	 0.0	 1.08	 0.0	 1.06706	 4.4	 1	 2.07	 2.07	 0.0	 0.0	 0.0	 0.0	 0.0	 0.0	 0.0	 0.0	 0.0	 0.0	 0.0;
	601	 4.05	 0.0	 1.8	 0.0	 1.07127	 4.4	 1	 4.05	 4.05	 0.0	 0.0	 0.0	 0.0	 0.0	 0.0	 0.0	 0.0	 0.0	 0.0	 0.0;
	622	 110.0	 -0.001	 30.0	 -0.001	 1.07256	 114.0	 1	 110.0	 110.0	 0.0	 0.0	 0.0	 0.0	 0.0	 0.0	 0.0	 0.0	 0.0	 0.0	 0.0;
	622	 0.0	 0.0	 30.0	 0.0	 1.07256	 65.3	 0	 0.0	 0.0	 0.0	 0.0	 0.0	 0.0	 0.0	 0.0	 0.0	 0.0	 0.0	 0.0	 0.0;
	626	 2.25	 0.0	 0.9	 0.0	 1.09334	 2.4	 1	 2.25	 2.25	 0.0	 0.0	 0.0	 0.0	 0.0	 0.0	 0.0	 0.0	 0.0	 0.0	 0.0;
	630	 4.5	 0.0	 2.52	 0.0	 1.06642	 5.2	 1	 4.5	 4.5	 0.0	 0.0	 0.0	 0.0	 0.0	 0.0	 0.0	 0.0	 0.0	 0.0	 0.0;
	631	 5.4	 0.0	 2.52	 0.0	 1.06675	 6.0	 1	 5.4	 5.4	 0.0	 0.0	 0.0	 0.0	 0.0	 0.0	 0.0	 0.0	 0.0	 0.0	 0.0;
	655	 0.81	 0.0	 0.36	 0.0	 1.03786	 0.9	 1	 0.81	 0.81	 0.0	 0.0	 0.0	 0.0	 0.0	 0.0	 0.0	 0.0	 0.0	 0.0	 0.0;
	660	 225.0	 -13.547	 120.0	 -20.0	 1.0847	 255.0	 1	 225.0	 135.0	 0.0	 0.0	 0.0	 0.0	 0.0	 0.0	 0.0	 0.0	 0.0	 0.0	 0.0;
	661	 225.0	 -19.999	 120.0	 -20.0	 1.08456	 255.0	 1	 225.0	 135.0	 0.0	 0.0	 0.0	 0.0	 0.0	 0.0	 0.0	 0.0	 0.0	 0.0	 0.0;
	667	 1.89	 0.0	 0.72	 0.0	 1.03243	 2.0	 1	 1.89	 1.89	 0.0	 0.0	 0.0	 0.0	 0.0	 0.0	 0.0	 0.0	 0.0	 0.0	 0.0;
	671	 7.65	 0.0	 2.7	 0.0	 1.074	 8.6	 1	 7.65	 7.65	 0.0	 0.0	 0.0	 0.0	 0.0	 0.0	 0.0	 0.0	 0.0	 0.0	 0.0;
	673	 2.7	 0.0	 0.9	 0.0	 1.06803	 4.4	 1	 2.7	 2.7	 0.0	 0.0	 0.0	 0.0	 0.0	 0.0	 0.0	 0.0	 0.0	 0.0	 0.0;
	681	 190.0	 0.0	 30.0	 0.0	 1.09532	 192.4	 1	 190.0	 190.0	 0.0	 0.0	 0.0	 0.0	 0.0	 0.0	 0.0	 0.0	 0.0	 0.0	 0.0;
	681	 24.998	 0.0	 30.0	 0.0	 1.09532	 77.5	 1	 24.998	 24.998	 0.0	 0.0	 0.0	 0.0	 0.0	 0.0	 0.0	 0.0	 0.0	 0.0	 0.0;
	687	 9.0	 0.0	 4.5	 0.0	 1.09299	 10.1	 1	 9.0	 9.0	 0.0	 0.0	 0.0	 0.0	 0.0	 0.0	 0.0	 0.0	 0.0	 0.0	 0.0;
	699	 5.4	 0.0	 2.7	 0.0	 1.08956	 6.0	 1	 5.4	 5.4	 0.0	 0.0	 0.0	 0.0	 0.0	 0.0	 0.0	 0.0	 0.0	 0.0	 0.0;
	702	 0.9	 0.0	 0.9	 0.0	 1.07007	 1.3	 1	 0.9	 0.9	 0.0	 0.0	 0.0	 0.0	 0.0	 0.0	 0.0	 0.0	 0.0	 0.0	 0.0;
	712	 9.0	 0.0	 2.0	 0.0	 1.06959	 9.2	 1	 9.0	 9.0	 0.0	 0.0	 0.0	 0.0	 0.0	 0.0	 0.0	 0.0	 0.0	 0.0	 0.0;
	718	 1.44	 0.0	 0.36	 0.0	 1.03956	 1.5	 1	 1.44	 1.44	 0.0	 0.0	 0.0	 0.0	 0.0	 0.0	 0.0	 0.0	 0.0	 0.0	 0.0;
	722	 2.25	 0.0	 0.9	 0.0	 1.07386	 2.4	 1	 2.25	 2.25	 0.0	 0.0	 0.0	 0.0	 0.0	 0.0	 0.0	 0.0	 0.0	 0.0	 0.0;
	731	 1.35	 0.0	 0.45	 0.0	 1.08205	 4.3	 1	 1.35	 1.35	 0.0	 0.0	 0.0	 0.0	 0.0	 0.0	 0.0	 0.0	 0.0	 0.0	 0.0;
	736	 130.0	 -20.0	 120.0	 -20.0	 1.07722	 255.0	 1	 225.0	 130.0	 0.0	 0.0	 0.0	 0.0	 0.0	 0.0	 0.0	 0.0	 0.0	 0.0	 0.0;
	740	 1.8	 0.0	 0.0	 0.0	 1.0801	 4.3	 1	 1.8	 1.8	 0.0	 0.0	 0.0	 0.0	 0.0	 0.0	 0.0	 0.0	 0.0	 0.0	 0.0;
	747	 4.68	 0.0	 2.7	 0.0	 1.03961	 5.4	 1	 4.68	 4.68	 0.0	 0.0	 0.0	 0.0	 0.0	 0.0	 0.0	 0.0	 0.0	 0.0	 0.0;
	759	 90.0	 0.0	 30.0	 0.0	 1.06468	 105.2	 1	 90.0	 90.0	 0.0	 0.0	 0.0	 0.0	 0.0	 0.0	 0.0	 0.0	 0.0	 0.0	 0.0;
	760	 0.0	 0.0	 0.0	 0.0	 1.07532	 1.3	 0	 0.0	 0.0	 0.0	 0.0	 0.0	 0.0	 0.0	 0.0	 0.0	 0.0	 0.0	 0.0	 0.0;
	778	 9.0	 0.0	 30.0	 0.0	 1.05621	 31.3	 1	 9.0	 9.0	 0.0	 0.0	 0.0	 0.0	 0.0	 0.0	 0.0	 0.0	 0.0	 0.0	 0.0;
	780	 1.26	 0.0	 0.63	 0.0	 1.07251	 1.4	 1	 1.26	 1.26	 0.0	 0.0	 0.0	 0.0	 0.0	 0.0	 0.0	 0.0	 0.0	 0.0	 0.0;
	783	 6.0	 0.0	 3.0	 0.0	 1.08998	 6.7	 1	 6.0	 6.0	 0.0	 0.0	 0.0	 0.0	 0.0	 0.0	 0.0	 0.0	 0.0	 0.0	 0.0;
	788	 2.0	 0.0	 1.0	 0.0	 1.0317	 95.9	 1	 2.0	 2.0	 0.0	 0.0	 0.0	 0.0	 0.0	 0.0	 0.0	 0.0	 0.0	 0.0	 0.0;
	792	 0.0	 0.0	 23.0	 0.0	 1.03204	 71.8	 0	 0.0	 0.0	 0.0	 0.0	 0.0	 0.0	 0.0	 0.0	 0.0	 0.0	 0.0	 0.0	 0.0;
	792	 0.0	 0.0	 23.0	 0.0	 1.03204	 71.8	 0	 0.0	 0.0	 0.0	 0.0	 0.0	 0.0	 0.0	 0.0	 0.0	 0.0	 0.0	 0.0	 0.0;
	792	 0.0	 0.0	 11.0	 0.0	 1.03204	 23.7	 0	 0.0	 0.0	 0.0	 0.0	 0.0	 0.0	 0.0	 0.0	 0.0	 0.0	 0.0	 0.0	 0.0;
	792	 0.0	 0.0	 10.0	 0.0	 1.03204	 23.3	 0	 0.0	 0.0	 0.0	 0.0	 0.0	 0.0	 0.0	 0.0	 0.0	 0.0	 0.0	 0.0	 0.0;
	803	 0.0	 0.0	 10.0	 0.0	 1.07499	 55.9	 1	 55.0	 0.0	 0.0	 0.0	 0.0	 0.0	 0.0	 0.0	 0.0	 0.0	 0.0	 0.0	 0.0;
	804	 0.0	 0.0	 10.0	 0.0	 1.06223	 120.4	 1	 120.0	 0.0	 0.0	 0.0	 0.0	 0.0	 0.0	 0.0	 0.0	 0.0	 0.0	 0.0	 0.0;
	809	 0.0	 0.0	 0.0	 0.0	 1.07473	 3.3	 0	 0.0	 0.0	 0.0	 0.0	 0.0	 0.0	 0.0	 0.0	 0.0	 0.0	 0.0	 0.0	 0.0;
	815	 2.7	 0.0	 1.62	 0.0	 1.07045	 3.1	 1	 2.7	 2.7	 0.0	 0.0	 0.0	 0.0	 0.0	 0.0	 0.0	 0.0	 0.0	 0.0	 0.0;
	834	 0.9	 0.0	 0.0	 0.0	 1.07228	 1.5	 1	 0.9	 0.9	 0.0	 0.0	 0.0	 0.0	 0.0	 0.0	 0.0	 0.0	 0.0	 0.0	 0.0;
	840	 25.0	 0.0	 5.592	 0.0	 1.05829	 51.3	 1	 25.0	 25.0	 0.0	 0.0	 0.0	 0.0	 0.0	 0.0	 0.0	 0.0	 0.0	 0.0	 0.0;
	840	 25.0	 0.0	 5.592	 0.0	 1.05829	 51.3	 1	 25.0	 25.0	 0.0	 0.0	 0.0	 0.0	 0.0	 0.0	 0.0	 0.0	 0.0	 0.0	 0.0;
	844	 1.9	 0.311	 0.311	 0.0	 1.07764	 3.5	 1	 1.9	 1.9	 0.0	 0.0	 0.0	 0.0	 0.0	 0.0	 0.0	 0.0	 0.0	 0.0	 0.0;
	848	 3.011	 0.011	 0.011	 0.0	 1.06932	 5.6	 1	 3.011	 3.011	 0.0	 0.0	 0.0	 0.0	 0.0	 0.0	 0.0	 0.0	 0.0	 0.0	 0.0;
	854	 7.0	 0.932	 0.932	 0.0	 1.08577	 14.5	 1	 7.0	 7.0	 0.0	 0.0	 0.0	 0.0	 0.0	 0.0	 0.0	 0.0	 0.0	 0.0	 0.0;
	873	 68.0	 7.816	 41.2	 0.0	 1.10604	 87.7	 1	 68.0	 68.0	 0.0	 0.0	 0.0	 0.0	 0.0	 0.0	 0.0	 0.0	 0.0	 0.0	 0.0;
	876	 0.0	 0.0	 0.0	 0.0	 1.08224	 1.9	 0	 0.0	 0.0	 0.0	 0.0	 0.0	 0.0	 0.0	 0.0	 0.0	 0.0	 0.0	 0.0	 0.0;
	896	 0.0	 0.0	 45.0	 -10.0	 1.09183	 65.8	 0	 0.0	 0.0	 0.0	 0.0	 0.0	 0.0	 0.0	 0.0	 0.0	 0.0	 0.0	 0.0	 0.0;
	896	 0.0	 0.0	 45.0	 -10.0	 1.09183	 71.1	 0	 0.0	 0.0	 0.0	 0.0	 0.0	 0.0	 0.0	 0.0	 0.0	 0.0	 0.0	 0.0	 0.0;
	896	 40.0	 45.0	 45.0	 -10.0	 1.09183	 71.1	 1	 40.0	 40.0	 0.0	 0.0	 0.0	 0.0	 0.0	 0.0	 0.0	 0.0	 0.0	 0.0	 0.0;
	902	 0.111	 0.011	 0.011	 0.0	 1.06358	 0.3	 1	 0.111	 0.111	 0.0	 0.0	 0.0	 0.0	 0.0	 0.0	 0.0	 0.0	 0.0	 0.0	 0.0;
...
];

%% generator cost data
%	2	startup	shutdown	n	c(n-1)	...	c0
mpc.gencost = [
	2	 0.0	 0.0	 3	   0.000000	 112.780000	   0.000000;
	2	 0.0	 0.0	 3	   0.000000	 112.780000	   0.000000;
	2	 0.0	 0.0	 3	   0.000000	  76.100000	   0.000000;
	2	 0.0	 0.0	 3	   0.000000	  76.100000	   0.000000;
	2	 0.0	 0.0	 3	   0.000000	  76.100000	   0.000000;
	2	 0.0	 0.0	 3	   0.000000	  76.100000	   0.000000;
	2	 0.0	 0.0	 3	   0.000000	  76.100000	   0.000000;
	2	 0.0	 0.0	 3	   0.000000	  76.100000	   0.000000;
	2	 0.0	 0.0	 3	   0.000000	  76.100000	   0.000000;
	2	 0.0	 0.0	 3	   0.000000	  76.100000	   0.000000;
	2	 0.0	 0.0	 3	   0.000000	  76.100000	   0.000000;
	2	 0.0	 0.0	 3	   0.000000	  76.100000	   0.000000;
	2	 0.0	 0.0	 3	   0.000000	  76.100000	   0.000000;
	2	 0.0	 0.0	 3	   0.000000	 102.050000	   0.000000;
	2	 0.0	 0.0	 3	   0.000000	 102.050000	   0.000000;
	2	 0.0	 0.0	 3	   0.000000	 102.050000	   0.000000;
	2	 0.0	 0.0	 3	   0.000000	 102.050000	   0.000000;
	2	 0.0	 0.0	 3	   0.000000	 102.050000	   0.000000;
	2	 0.0	 0.0	 3	   0.000000	 102.050000	   0.000000;
	2	 0.0	 0.0	 3	   0.000000	 102.050000	   0.000000;
	2	 0.0	 0.0	 3	   0.000000	 102.050000	   0.000000;
	2	 0.0	 0.0	 3	   0.000000	 105.350000	   0.000000;
	2	 0.0	 0.0	 3	   0.000000	 105.350000	   0.000000;
	2	 0.0	 0.0	 3	   0.000000	 105.350000	   0.000000;
	2	 0.0	 0.0	 3	   0.000000	 105.350000	   0.000000;
	2	 0.0	 0.0	 3	   0.000000	 105.350000	   0.000000;
	2	 0.0	 0.0	 3	   0.000000	 105.350000	   0.000000;
	2	 0.0	 0.0	 3	   0.000000	 105.350000	   0.000000;
	2	 0.0	 0.0	 3	   0.000000	   0.000000	   0.000000;
	2	 0.0	 0.0	 3	   0.000000	  95.310000	   0.000000;
	2	 0.0	 0.0	 3	   0.000000	  95.310000	   0.000000;
	2	 0.0	 0.0	 3	   0.000000	  95.310000	   0.000000;
	2	 0.0	 0.0	 3	   0.000000	  95.310000	   0.000000;
	2	 0.0	 0.0	 3	   0.000000	  95.310000	   0.000000;
	2	 0.0	 0.0	 3	   0.000000	  90.030000	   0.000000;
	2	 0.0	 0.0	 3	   0.000000	  90.030000	   0.000000;
	2	 0.0	 0.0	 3	   0.000000	  92.780000	   0.000000;
	2	 0.0	 0.0	 3	   0.000000	  92.780000	   0.000000;
	2	 0.0	 0.0	 3	   0.000000	  94.090000	   0.000000;
	2	 0.0	 0.0	 3	   0.000000	  94.090000	   0.000000;
	2	 0.0	 0.0	 3	   0.000000	  97.120000	   0.000000;
	2	 0.0	 0.0	 3	   0.000000	  97.120000	   0.000000;
	2	 0.0	 0.0	 3	   0.000000	  99.520000	   0.000000;
	2	 0.0	 0.0	 3	   0.000000	  91.160000	   0.000000;
	2	 0.0	 0.0	 3	   0.000000	  91.160000	   0.000000;
	2	 0.0	 0.0	 3	   0.000000	  91.160000	   0.000000;
	2	 0.0	 0.0	 3	   0.000000	  91.160000	   0.000000;
	2	 0.0	 0.0	 3	   0.000000	  91.160000	   0.000000;
	2	 0.0	 0.0	 3	   0.000000	   0.010000	   0.000000;
	2	 0.0	 0.0	 3	   0.000000	   0.010000	   0.000000;
	2	 0.0	 0.0	 3	   0.000000	   0.010000	   0.000000;
	2	 0.0	 0.0	 3	   0.000000	   0.010000	   0.000000;
	2	 0.0	 0.0	 3	   0.000000	  92.430000	   0.000000;
	2	 0.0	 0.0	 3	   0.000000	  92.430000	   0.000000;
	2	 0.0	 0.0	 3	   0.000000	  92.430000	   0.000000;
	2	 0.0	 0.0	 3	   0.000000	  96.420000	   0.000000;
	2	 0.0	 0.0	 3	   0.000000	  96.420000	   0.000000;
	2	 0.0	 0.0	 3	   0.000000	  96.420000	   0.000000;
	2	 0.0	 0.0	 3	   0.000000	 116.010000	   0.000000;
	2	 0.0	 0.0	 3	   0.000000	 116.010000	   0.000000;
	2	 0.0	 0.0	 3	   0.000000	 116.010000	   0.000000;
	2	 0.0	 0.0	 3	   0.000000	 116.010000	   0.000000;
	2	 0.0	 0.0	 3	   0.000000	 116.010000	   0.000000;
	2	 0.0	 0.0	 3	   0.000000	 116.010000	   0.000000;
	2	 0.0	 0.0	 3	   0.000000	 116.010000	   0.000000;
	2	 0.0	 0.0	 3	   0.000000	  98.840000	   0.000000;
	2	 0.0	 0.0	 3	   0.000000	  98.840000	   0.000000;
	2	 0.0	 0.0	 3	   0.000000	  98.840000	   0.000000;
	2	 0.0	 0.0	 3	   0.000000	  98.840000	   0.000000;
	2	 0.0	 0.0	 3	   0.000000	  98.840000	   0.000000;
	2	 0.0	 0.0	 3	   0.000000	  98.840000	   0.000000;
	2	 0.0	 0.0	 3	   0.000000	  98.840000	   0.000000;
	2	 0.0	 0.0	 3	   0.000000	  98.840000	   0.000000;
	2	 0.0	 0.0	 3	   0.000000	  98.840000	   0.000000;
	2	 0.0	 0.0	 3	   0.000000	  89.220000	   0.000000;
	2	 0.0	 0.0	 3	   0.000000	  89.220000	   0.000000;
	2	 0.0	 0.0	 3	   0.000000	  89.220000	   0.000000;
	2	 0.0	 0.0	 3	   0.000000	  89.220000	   0.000000;
	2	 0.0	 0.0	 3	   0.000000	   0.010000	   0.000000;
	2	 0.0	 0.0	 3	   0.000000	   0.010000	   0.000000;
	2	 0.0	 0.0	 3	   0.000000	   0.010000	   0.000000;
	2	 0.0	 0.0	 3	   0.000000	   0.010000	   0.000000;
	2	 0.0	 0.0	 3	   0.000000	   0.000000	   0.000000;
	2	 0.0	 0.0	 3	   0.000000	   0.000000	   0.000000;
	2	 0.0	 0.0	 3	   0.000000	   0.000000	   0.000000;
	2	 0.0	 0.0	 3	   0.000000	   0.000000	   0.000000;
	2	 0.0	 0.0	 3	   0.000000	   0.000000	   0.000000;
	2	 0.0	 0.0	 3	   0.000000	   0.000000	   0.000000;
	2	 0.0	 0.0	 3	   0.000000	   0.000000	   0.000000;
	2	 0.0	 0.0	 3	   0.000000	  76.100000	   0.000000;
	2	 0.0	 0.0	 3	   0.000000	   0.000000	   0.000000;
	2	 0.0	 0.0	 3	   0.000000	   0.000000	   0.000000;
	2	 0.0	 0.0	 3	   0.000000	   0.000000	   0.000000;
	2	 0.0	 0.0	 3	   0.000000	   0.000000	   0.000000;
	2	 0.0	 0.0	 3	   0.000000	   0.000000	   0.000000;
	2	 0.0	 0.0	 3	   0.000000	   0.000000	   0.000000;
	2	 0.0	 0.0	 3	   0.000000	   0.000000	   0.000000;
	2	 0.0	 0.0	 3	   0.000000	   0.000000	   0.000000;
	2	 0.0	 0.0	 3	   0.000000	   0.000000	   0.000000;
	2	 0.0	 0.0	 3	   0.000000	   0.000000	   0.000000;
	2	 0.0	 0.0	 3	   0.000000	   0.000000	   0.000000;
	2	 0.0	 0.0	 3	   0.000000	   0.000000	   0.000000;
	2	 0.0	 0.0	 3	   0.000000	   0.000000	   0.000000;
	2	 0.0	 0.0	 3	   0.000000	   0.000000	   0.000000;
	2	 0.0	 0.0	 3	   0.000000	   0.000000	   0.000000;
	2	 0.0	 0.0	 3	   0.000000	   0.000000	   0.000000;
	2	 0.0	 0.0	 3	   0.000000	   0.000000	   0.000000;
	2	 0.0	 0.0	 3	   0.000000	   0.000000	   0.000000;
	2	 0.0	 0.0	 3	   0.000000	   0.000000	   0.000000;
	2	 0.0	 0.0	 3	   0.000000	   0.000000	   0.000000;
	2	 0.0	 0.0	 3	   0.000000	   0.000000	   0.000000;
	2	 0.0	 0.0	 3	   0.000000	   0.000000	   0.000000;
	2	 0.0	 0.0	 3	   0.000000	   0.000000	   0.000000;
	2	 0.0	 0.0	 3	   0.000000	 112.780000	   0.000000;
	2	 0.0	 0.0	 3	   0.000000	 112.780000	   0.000000;
	2	 0.0	 0.0	 3	   0.000000	 112.780000	   0.000000;
	2	 0.0	 0.0	 3	   0.000000	   0.000000	   0.000000;
	2	 0.0	 0.0	 3	   0.000000	   0.000000	   0.000000;
	2	 0.0	 0.0	 3	   0.000000	   0.000000	   0.000000;
	2	 0.0	 0.0	 3	   0.000000	   0.000000	   0.000000;
	2	 0.0	 0.0	 3	   0.000000	   0.000000	   0.000000;
	2	 0.0	 0.0	 3	   0.000000	   0.000000	   0.000000;
	2	 0.0	 0.0	 3	   0.000000	   0.000000	   0.000000;
	2	 0.0	 0.0	 3	   0.000000	   0.000000	   0.000000;
	2	 0.0	 0.0	 3	   0.000000	   0.000000	   0.000000;
	2	 0.0	 0.0	 3	   0.000000	   0.000000	   0.000000;
	2	 0.0	 0.0	 3	   0.000000	   0.000000	   0.000000;
	2	 0.0	 0.0	 3	   0.000000	   0.000000	   0.000000;
	2	 0.0	 0.0	 3	   0.000000	   0.000000	   0.000000;
	2	 0.0	 0.0	 3	   0.000000	   0.000000	   0.000000;
	2	 0.0	 0.0	 3	   0.000000	   0.000000	   0.000000;
	2	 0.0	 0.0	 3	   0.000000	   0.000000	   0.000000;
	2	 0.0	 0.0	 3	   0.000000	   0.000000	   0.000000;
	2	 0.0	 0.0	 3	   0.000000	   0.000000	   0.000000;
	2	 0.0	 0.0	 3	   0.000000	   0.000000	   0.000000;
	2	 0.0	 0.0	 3	   0.000000	   0.000000	   0.000000;
	2	 0.0	 0.0	 3	   0.000000	   0.000000	   0.000000;
	2	 0.0	 0.0	 3	   0.000000	   0.000000	   0.000000;
	2	 0.0	 0.0	 3	   0.000000	   0.000000	   0.000000;
	2	 0.0	 0.0	 3	   0.000000	   0.000000	   0.000000;
	2	 0.0	 0.0	 3	   0.000000	   0.000000	   0.000000;
	2	 0.0	 0.0	 3	   0.000000	   0.000000	   0.000000;
	2	 0.0	 0.0	 3	   0.000000	   0.000000	   0.000000;
	2	 0.0	 0.0	 3	   0.000000	   0.000000	   0.000000;
	2	 0.0	 0.0	 3	   0.000000	   0.000000	   0.000000;
	2	 0.0	 0.0	 3	   0.000000	   0.000000	   0.000000;
	2	 0.0	 0.0	 3	   0.000000	   0.000000	   0.000000;
	2	 0.0	 0.0	 3	   0.000000	   0.000000	   0.000000;
	2	 0.0	 0.0	 3	   0.000000	   0.000000	   0.000000;
	2	 0.0	 0.0	 3	   0.000000	   0.000000	   0.000000;
	2	 0.0	 0.0	 3	   0.000000	   0.000000	   0.000000;
	2	 0.0	 0.0	 3	   0.000000	   0.000000	   0.000000;
	2	 0.0	 0.0	 3	   0.000000	   0.000000	   0.000000;
	2	 0.0	 0.0	 3	   0.000000	   0.000000	   0.000000;
	2	 0.0	 0.0	 3	   0.000000	   0.000000	   0.000000;
	2	 0.0	 0.0	 3	   0.000000	   0.000000	   0.000000;
	2	 0.0	 0.0	 3	   0.000000	   0.000000	   0.000000;
	2	 0.0	 0.0	 3	   0.000000	 102.050000	   0.000000;
	2	 0.0	 0.0	 3	   0.000000	 102.050000	   0.000000;
	2	 0.0	 0.0	 3	   0.000000	   0.000000	   0.000000;
	2	 0.0	 0.0	 3	   0.000000	   0.000000	   0.000000;
	2	 0.0	 0.0	 3	   0.000000	   0.000000	   0.000000;
	2	 0.0	 0.0	 3	   0.000000	   0.000000	   0.000000;
	2	 0.0	 0.0	 3	   0.000000	   0.000000	   0.000000;
	2	 0.0	 0.0	 3	   0.000000	   0.000000	   0.000000;
	2	 0.0	 0.0	 3	   0.000000	   0.000000	   0.000000;
	2	 0.0	 0.0	 3	   0.000000	   0.000000	   0.000000;
	2	 0.0	 0.0	 3	   0.000000	   0.000000	   0.000000;
	2	 0.0	 0.0	 3	   0.000000	   0.000000	   0.000000;
	2	 0.0	 0.0	 3	   0.000000	   0.000000	   0.000000;
	2	 0.0	 0.0	 3	   0.000000	   0.000000	   0.000000;
	2	 0.0	 0.0	 3	   0.000000	 105.350000	   0.000000;
	2	 0.0	 0.0	 3	   0.000000	   0.000000	   0.000000;
	2	 0.0	 0.0	 3	   0.000000	   0.000000	   0.000000;
	2	 0.0	 0.0	 3	   0.000000	   0.000000	   0.000000;
	2	 0.0	 0.0	 3	   0.000000	   0.000000	   0.000000;
	2	 0.0	 0.0	 3	   0.000000	   0.000000	   0.000000;
	2	 0.0	 0.0	 3	   0.000000	   0.000000	   0.000000;
	2	 0.0	 0.0	 3	   0.000000	   0.000000	   0.000000;
	2	 0.0	 0.0	 3	   0.000000	   0.000000	   0.000000;
	2	 0.0	 0.0	 3	   0.000000	   0.010000	   0.000000;
	2	 0.0	 0.0	 3	   0.000000	   0.010000	   0.000000;
	2	 0.0	 0.0	 3	   0.000000	   0.010000	   0.000000;
	2	 0.0	 0.0	 3	   0.000000	   0.010000	   0.000000;
	2	 0.0	 0.0	 3	   0.000000	 111.630000	   0.000000;
	2	 0.0	 0.0	 3	   0.000000	 111.630000	   0.000000;
	2	 0.0	 0.0	 3	   0.000000	   0.000000	   0.000000;
	2	 0.0	 0.0	 3	   0.000000	   0.000000	   0.000000;
	2	 0.0	 0.0	 3	   0.000000	   0.000000	   0.000000;
	2	 0.0	 0.0	 3	   0.000000	   0.000000	   0.000000;
	2	 0.0	 0.0	 3	   0.000000	   0.000000	   0.000000;
	2	 0.0	 0.0	 3	   0.000000	   0.000000	   0.000000;
	2	 0.0	 0.0	 3	   0.000000	   0.000000	   0.000000;
	2	 0.0	 0.0	 3	   0.000000	   0.000000	   0.000000;
	2	 0.0	 0.0	 3	   0.000000	   0.000000	   0.000000;
	2	 0.0	 0.0	 3	   0.000000	   0.000000	   0.000000;
	2	 0.0	 0.0	 3	   0.000000	   0.000000	   0.000000;
	2	 0.0	 0.0	 3	   0.000000	   0.000000	   0.000000;
	2	 0.0	 0.0	 3	   0.000000	   0.000000	   0.000000;
	2	 0.0	 0.0	 3	   0.000000	   0.000000	   0.000000;
...
];

%% branch data
%	fbus	tbus	r	x	b	rateA	rateB	rateC	ratio	angle	status	angmin	angmax
mpc.branch = [
	7	 8	 0.00064	 0.0305	 0.0	 400.0	 400.0	 400.0	 1.0435	 -0.6	 1	 -8.59177	 8.59177;
	26	 28	 0.00036	 0.02519	 0.0	 500.0	 500.0	 500.0	 1.0627	 0.0	 1	 -8.59177	 8.59177;
	27	 29	 0.00036	 0.02519	 0.0	 500.0	 500.0	 500.0	 1.0623	 0.0	 1	 -8.59177	 8.59177;
	40	 42	 0.00034	 0.02097	 0.0	 500.0	 500.0	 500.0	 1.1011	 0.0	 1	 -8.59177	 8.59177;
	43	 46	 0.00034	 0.02097	 0.0	 500.0	 500.0	 500.0	 1.0733	 0.0	 1	 -8.59177	 8.59177;
	55	 57	 0.00081	 0.03	 0.0	 400.0	 400.0	 400.0	 1.0547	 0.0	 1	 -8.59177	 8.59177;
	90	 92	 0.00075	 0.02444	 -0.00832	 330.0	 330.0	 330.0	 1.0508	 0.0	 1	 -8.59177	 8.59177;
	91	 93	 0.00075	 0.02469	 -0.008	 330.0	 330.0	 330.0	 1.0499	 0.0	 1	 -8.59177	 8.59177;
	125	 128	 0.0005	 0.02875	 -0.016	 400.0	 400.0	 400.0	 1.0677	 0.0	 1	 -8.59177	 8.59177;
	149	 150	 0.00064	 0.0305	 0.0	 400.0	 400.0	 400.0	 1.0568	 0.0	 1	 -8.59177	 8.59177;
	155	 158	 0.000232	 0.023	 0.0	 500.0	 500.0	 500.0	 1.049	 0.0	 1	 -8.59177	 8.59177;
	156	 159	 0.000232	 0.023	 0.0	 500.0	 500.0	 500.0	 1.0479	 0.0	 1	 -8.59177	 8.59177;
	170	 172	 0.00035	 0.02375	 0.0	 500.0	 500.0	 500.0	 1.195	 0.0	 1	 -8.59177	 8.59177;
	183	 184	 0.00059	 0.03093	 0.0	 400.0	 400.0	 400.0	 1.0847	 0.0	 1	 -8.59177	 8.59177;
	190	 192	 0.0004	 0.03	 0.0	 500.0	 500.0	 500.0	 1.0485	 0.0	 1	 -8.59177	 8.59177;
	2735	 158	 0.00031	 0.00338	 0.0992	 1386.0	 1386.0	 1386.0	 0.0	 0.0	 1	 -8.59177	 8.59177;
	2735	 159	 0.00031	 0.00338	 0.0992	 1386.0	 1386.0	 1386.0	 0.0	 0.0	 1	 -8.59177	 8.59177;
	2736	 68	 0.014341	 0.083531	 0.126034	 415.0	 415.0	 415.0	 0.0	 0.0	 1	 -8.59177	 8.59177;
	2734	 76	 0.01219	 0.070659	 0.117418	 412.0	 412.0	 412.0	 0.0	 0.0	 1	 -8.59177	 8.59177;
	2734	 105	 0.011781	 0.07087	 0.116838	 412.0	 412.0	 412.0	 0.0	 0.0	 1	 -8.59177	 8.59177;
	2739	 200	 1e-05	 9e-05	 0.0	 924.0	 924.0	 924.0	 0.0	 0.0	 1	 -8.59177	 8.59177;
	128	 2732	 0.0015	 0.01469	 0.40384	 1386.0	 1386.0	 1386.0	 0.0	 0.0	 0	 -8.59177	 8.59177;
	127	 2733	 0.001419	 0.014675	 0.4896	 1386.0	 1386.0	 1386.0	 0.0	 0.0	 1	 -8.59177	 8.59177;
	2737	 148	 0.001651	 0.015909	 0.046948	 373.0	 373.0	 373.0	 0.0	 0.0	 1	 -8.59177	 8.59177;
	2737	 149	 0.001651	 0.015909	 0.046948	 373.0	 373.0	 373.0	 0.0	 0.0	 1	 -8.59177	 8.59177;
	2738	 48	 0.00188	 0.02287	 0.6432	 831.0	 831.0	 831.0	 0.0	 0.0	 1	 -8.59177	 8.59177;
	2738	 49	 0.00188	 0.02287	 0.6432	 831.0	 831.0	 831.0	 0.0	 0.0	 1	 -8.59177	 8.59177;
	82	 2732	 0.003519	 0.039313	 1.0336	 1621.0	 1621.0	 1621.0	 0.0	 0.0	 1	 -8.59177	 8.59177;
	43	 23	 0.01345	 0.081141	 0.141134	 339.0	 339.0	 339.0	 0.0	 0.0	 1	 -8.59177	 8.59177;
	26	 90	 0.009091	 0.062401	 0.111417	 457.0	 457.0	 457.0	 0.0	 0.0	 1	 -8.59177	 8.59177;
	27	 91	 0.00868	 0.06405	 0.096994	 457.0	 457.0	 457.0	 0.0	 0.0	 1	 -8.59177	 8.59177;
	146	 30	 0.016961	 0.123659	 0.196988	 373.0	 373.0	 373.0	 0.0	 0.0	 1	 -8.59177	 8.59177;
	135	 34	 0.00512	 0.02618	 0.029621	 335.0	 335.0	 335.0	 0.0	 0.0	 1	 -8.59177	 8.59177;
	134	 20	 0.01068	 0.061961	 0.094961	 415.0	 415.0	 415.0	 0.0	 0.0	 1	 -8.59177	 8.59177;
	165	 21	 0.014651	 0.105891	 0.170852	 373.0	 373.0	 373.0	 0.0	 0.0	 1	 -8.59177	 8.59177;
	41	 109	 0.01488	 0.08161	 0.114805	 347.0	 347.0	 347.0	 0.0	 0.0	 1	 -8.59177	 8.59177;
	40	 91	 0.011159	 0.07231	 0.103673	 362.0	 362.0	 362.0	 0.0	 0.0	 1	 -8.59177	 8.59177;
	179	 83	 0.008616	 0.077645	 0.122239	 373.0	 373.0	 373.0	 0.0	 0.0	 1	 -8.59177	 8.59177;
	203	 166	 0.01176	 0.068289	 0.102802	 362.0	 362.0	 362.0	 0.0	 0.0	 1	 -8.59177	 8.59177;
	194	 166	 0.016818	 0.089091	 0.129935	 400.0	 400.0	 400.0	 0.0	 0.0	 1	 -8.59177	 8.59177;
	193	 165	 0.013843	 0.087025	 0.134842	 427.0	 427.0	 427.0	 0.0	 0.0	 1	 -8.59177	 8.59177;
	207	 168	 0.01676	 0.097169	 0.148685	 274.0	 274.0	 274.0	 0.0	 0.0	 1	 -8.59177	 8.59177;
	43	 12	 0.01269	 0.074979	 0.130196	 377.0	 377.0	 377.0	 0.0	 0.0	 1	 -8.59177	 8.59177;
	198	 18	 0.014091	 0.10413	 0.15972	 373.0	 373.0	 373.0	 0.0	 0.0	 1	 -8.59177	 8.59177;
	100	 55	 0.003719	 0.0438	 0.100962	 457.0	 457.0	 457.0	 0.0	 0.0	 1	 -8.59177	 8.59177;
	163	 82	 0.00194	 0.02056	 0.51584	 1316.0	 1316.0	 1316.0	 0.0	 0.0	 1	 -8.59177	 8.59177;
	45	 9	 0.0015	 0.01506	 0.4032	 1386.0	 1386.0	 1386.0	 0.0	 0.0	 1	 -8.59177	 8.59177;
	185	 151	 0.00294	 0.03463	 0.9216	 693.0	 693.0	 693.0	 0.0	 0.0	 1	 -8.59177	 8.59177;
	121	 57	 0.00169	 0.01994	 0.50624	 831.0	 831.0	 831.0	 0.0	 0.0	 1	 -8.59177	 8.59177;
	29	 93	 0.00137	 0.01625	 0.41184	 1386.0	 1386.0	 1386.0	 0.0	 0.0	 1	 -8.59177	 8.59177;
	28	 123	 0.00231	 0.02769	 0.70144	 1386.0	 1386.0	 1386.0	 0.0	 0.0	 1	 -8.59177	 8.59177;
	25	 192	 0.00207	 0.02474	 0.664	 831.0	 831.0	 831.0	 0.0	 0.0	 1	 -8.59177	 8.59177;
	120	 64	 0.0015	 0.01788	 0.4512	 831.0	 831.0	 831.0	 0.0	 0.0	 1	 -8.59177	 8.59177;
	122	 65	 0.00469	 0.05544	 1.4048	 831.0	 831.0	 831.0	 0.0	 0.0	 0	 -8.59177	 8.59177;
	82	 31	 0.00331	 0.03425	 0.85888	 1150.0	 1150.0	 1150.0	 0.0	 0.0	 1	 -8.59177	 8.59177;
	92	 28	 0.00219	 0.02369	 0.59584	 1316.0	 1316.0	 1316.0	 0.0	 0.0	 1	 -8.59177	 8.59177;
	10	 4	 0.01674	 0.09711	 0.144232	 461.0	 461.0	 461.0	 0.0	 0.0	 1	 -8.59177	 8.59177;
	30	 11	 0.0057	 0.0407	 0.06021	 373.0	 373.0	 373.0	 0.0	 0.0	 1	 -8.59177	 8.59177;
	33	 4	 0.004419	 0.032229	 0.049852	 392.0	 392.0	 392.0	 0.0	 0.0	 1	 -8.59177	 8.59177;
	17	 7	 0.014591	 0.11219	 0.165528	 427.0	 427.0	 427.0	 0.0	 0.0	 1	 -8.59177	 8.59177;
	21	 10	 0.01211	 0.087419	 0.140166	 373.0	 373.0	 373.0	 0.0	 0.0	 1	 -8.59177	 8.59177;
	26	 5	 0.009773	 0.050516	 0.088959	 377.0	 377.0	 377.0	 0.0	 0.0	 1	 -8.59177	 8.59177;
	17	 3	 0.01068	 0.07895	 0.122597	 274.0	 274.0	 274.0	 0.0	 0.0	 1	 -8.59177	 8.59177;
	26	 19	 0.0057	 0.039521	 0.075533	 480.0	 480.0	 480.0	 0.0	 0.0	 1	 -8.59177	 8.59177;
	27	 20	 0.0057	 0.039521	 0.075533	 480.0	 480.0	 480.0	 0.0	 0.0	 1	 -8.59177	 8.59177;
	11	 6	 0.00525	 0.03988	 0.061952	 373.0	 373.0	 373.0	 0.0	 0.0	 1	 -8.59177	 8.59177;
	32	 11	 0.00093	 0.00651	 0.011132	 373.0	 373.0	 373.0	 0.0	 0.0	 1	 -8.59177	 8.59177;
	23	 12	 0.00205	 0.01326	 0.022429	 415.0	 415.0	 415.0	 0.0	 0.0	 1	 -8.59177	 8.59177;
	34	 5	 0.007831	 0.043	 0.04962	 335.0	 335.0	 335.0	 0.0	 0.0	 1	 -8.59177	 8.59177;
	19	 4	 0.00293	 0.01599	 0.024781	 362.0	 362.0	 362.0	 0.0	 0.0	 1	 -8.59177	 8.59177;
	26	 1	 0.00155	 0.01169	 0.018198	 747.0	 747.0	 747.0	 0.0	 0.0	 1	 -8.59177	 8.59177;
	27	 2	 0.00155	 0.01169	 0.018198	 747.0	 747.0	 747.0	 0.0	 0.0	 1	 -8.59177	 8.59177;
	27	 33	 0.003841	 0.028531	 0.045883	 392.0	 392.0	 392.0	 0.0	 0.0	 1	 -8.59177	 8.59177;
	24	 33	 2e-06	 2.1e-05	 0.0	 392.0	 392.0	 392.0	 0.0	 0.0	 1	 -8.59177	 8.59177;
	25	 9	 0.00298	 0.03417	 0.93504	 831.0	 831.0	 831.0	 0.0	 0.0	 1	 -8.59177	 8.59177;
	28	 25	 0.00358	 0.04262	 1.0944	 1386.0	 1386.0	 1386.0	 0.0	 0.0	 1	 -8.59177	 8.59177;
	14	 29	 0.00336	 0.03977	 1.02163	 1316.0	 1316.0	 1316.0	 0.0	 0.0	 1	 -8.59177	 8.59177;
...